Circuit: * C:\users\ashmita\Desktop\ASHMITA\APanda_Lib_LTSpice\Non-Linear\Non-linear NR.asc

Error on line 13 : v3 n001 n008 v
	 Unknown parameter "v"
V3: Missing value, assumed 0V @ DC

Date: Sun Oct 10 10:13:36 2021
Total elapsed time: 0.163 seconds.

tnom = 27
temp = 27
method = trap
totiter = 469
traniter = 0
tranpoints = 0
accept = 0
rejected = 0
matrix size = 53
fillins = 170
solver = Normal
Matrix Compiler1: 15.13 KB object code size  8.0/5.0/[2.6]
Matrix Compiler2: 7.50 KB object code size  2.6/3.4/[1.7]

