Circuit: * C:\users\ashmita\Desktop\ASHMITA\APanda_Lib_LTSpice\chua_TL082.asc

Early termination of direct N-R iteration.
Direct Newton iteration failed to find .op point.  (Use ".option noopiter" to skip.)
Starting Gmin stepping
Gmin = 10
vernier = 0.5
vernier = 0.25
vernier = 0.125
Gmin = 5.5165
vernier = 0.0625
vernier = 0.03125
vernier = 0.015625
vernier = 0.0078125
Gmin = 5.49501
vernier = 0.00390625
vernier = 0.00195313
vernier = 0.000976563
vernier = 0.000488281
Gmin = 5.50104
Gmin = 0
Gmin stepping succeeded in finding the operating point.

Heightened Def Con from 4.13843e-007 to 4.13845e-007
Heightened Def Con from 4.13849e-007 to 4.13853e-007
Heightened Def Con from 4.13907e-007 ++to 4.13923e-007
Heightened Def Con from 4.14457e-007 +to 4.14457e-007
Heightened Def Con from 4.14457e-007 to 4.14457e-007
Heightened Def Con from 4.14457e-007 to 4.14488e-007
Heightened Def Con from 4.16387e-007 +to 4.16387e-007
Heightened Def Con from 4.16387e-007 to 4.17512e-007
Heightened Def Con from 4.17762e-007 +to 4.17762e-007
Heightened Def Con from 4.17762e-007 to 4.19762e-007
Heightened Def Con from 4.25593e-007 +to 4.26593e-007
Heightened Def Con from 4.26593e-007 to 4.26624e-007
Heightened Def Con from 4.26687e-007 +to 4.26687e-007
Heightened Def Con from 4.26688e-007 to 4.26719e-007
Heightened Def Con from 4.27215e-007 to 4.27465e-007
Heightened Def Con from 1.41753e-006 to 1.41755e-006
Heightened Def Con from 1.41758e-006 to 1.4176e-006
Heightened Def Con from 1.4176e-006 to 1.41762e-006
Heightened Def Con from 1.41762e-006 to 1.41762e-006
Heightened Def Con from 1.41762e-006 to 1.41766e-006
Heightened Def Con from 1.41766e-006 to 1.41766e-006
Heightened Def Con from 1.41766e-006 to 1.41768e-006
Heightened Def Con from 1.41779e-006 to 1.41781e-006
Heightened Def Con from 1.41781e-006 +to 1.41881e-006
Heightened Def Con from 1.41881e-006 +++to 1.41881e-006
Heightened Def Con from 1.41881e-006 +to 1.41981e-006
Heightened Def Con from 1.41981e-006 ++to 1.41981e-006
Heightened Def Con from 1.41981e-006 +++++to 1.41981e-006
Heightened Def Con from 1.41981e-006 to 1.41985e-006
Heightened Def Con from 1.41985e-006 to 1.41987e-006
Heightened Def Con from 1.41987e-006 to 1.41987e-006
Heightened Def Con from 1.41988e-006 to 1.41989e-006
Heightened Def Con from 1.4199e-006 to 1.4199e-006
Heightened Def Con from 1.4199e-006 to 1.41992e-006
Heightened Def Con from 1.41996e-006 to 1.41997e-006
Heightened Def Con from 1.41997e-006 to 1.41997e-006
Heightened Def Con from 1.41997e-006 to 1.41997e-006
Heightened Def Con from 1.41998e-006 to 1.41999e-006
Heightened Def Con from 1.41999e-006 to 1.42001e-006
Heightened Def Con from 1.42002e-006 to 1.42005e-006
Heightened Def Con from 1.42005e-006 to 1.42008e-006
Heightened Def Con from 1.42009e-006 to 1.42011e-006
Heightened Def Con from 1.42011e-006 to 1.42012e-006
Heightened Def Con from 1.42013e-006 to 1.42015e-006
Heightened Def Con from 1.42015e-006 ++++++++++++to 1.42016e-006
Heightened Def Con from 1.42016e-006 to 1.42016e-006
Heightened Def Con from 1.42016e-006 +to 1.42116e-006
Heightened Def Con from 1.42116e-006 +to 1.42216e-006
Heightened Def Con from 1.42216e-006 to 1.42218e-006
Heightened Def Con from 1.42219e-006 to 1.42221e-006
Heightened Def Con from 1.42221e-006 to 1.42221e-006
Heightened Def Con from 1.42221e-006 to 1.42224e-006
Heightened Def Con from 1.42225e-006 to 1.42228e-006
Heightened Def Con from 1.42228e-006 to 1.4223e-006
Heightened Def Con from 1.4223e-006 +to 1.4233e-006
Heightened Def Con from 1.42331e-006 to 1.42332e-006
Heightened Def Con from 1.42333e-006 to 1.42334e-006
Heightened Def Con from 1.42335e-006 ++++++++++++++++++to 1.42435e-006
Heightened Def Con from 1.42435e-006 +++++++++++++++to 1.42435e-006
Heightened Def Con from 1.42435e-006 +++++++++++++++to 1.42436e-006
Heightened Def Con from 1.42436e-006 +++++++++++++++to 1.42437e-006
Heightened Def Con from 1.42437e-006 +++++++++++++++to 1.42437e-006
Heightened Def Con from 1.42437e-006 +++++++++++++++to 1.42437e-006
Heightened Def Con from 1.42437e-006 +++++++++++++++to 1.42437e-006
Heightened Def Con from 1.42437e-006 +++++++++++++++to 1.42437e-006
Heightened Def Con from 1.42437e-006 +++++++++++++++to 1.42438e-006
Heightened Def Con from 1.42438e-006 ++++++++++++++++++to 1.4245e-006
Heightened Def Con from 1.4245e-006 to 1.4245e-006
Heightened Def Con from 1.4245e-006 to 1.42452e-006
Heightened Def Con from 1.42452e-006 to 1.42452e-006
Heightened Def Con from 1.42452e-006 to 1.42453e-006
Heightened Def Con from 1.42453e-006 to 1.42454e-006
Heightened Def Con from 1.42454e-006 to 1.42454e-006
Heightened Def Con from 1.42454e-006 to 1.42457e-006
Heightened Def Con from 1.42458e-006 to 1.42461e-006
Heightened Def Con from 1.42462e-006 to 1.42463e-006
Heightened Def Con from 1.42464e-006 to 1.42464e-006
Heightened Def Con from 1.42464e-006 to 1.42467e-006
Heightened Def Con from 1.42467e-006 to 1.42468e-006
Heightened Def Con from 1.42468e-006 ++++++to 1.42469e-006
Heightened Def Con from 1.42469e-006 to 1.42469e-006
Heightened Def Con from 1.42469e-006 ++++++to 1.42469e-006
Heightened Def Con from 1.42469e-006 +to 1.42471e-006
Heightened Def Con from 1.42471e-006 to 1.42472e-006
Heightened Def Con from 1.42474e-006 to 1.42476e-006
Heightened Def Con from 1.42476e-006 to 1.42476e-006
Heightened Def Con from 1.42476e-006 to 1.42476e-006
Heightened Def Con from 1.42476e-006 to 1.42478e-006
Heightened Def Con from 1.42478e-006 to 1.42479e-006
Heightened Def Con from 1.42481e-006 to 1.42482e-006
Heightened Def Con from 1.42482e-006 to 1.42482e-006
Heightened Def Con from 1.42485e-006 to 1.42486e-006
Heightened Def Con from 1.42486e-006 +to 1.42488e-006
Heightened Def Con from 1.42492e-006 ++to 1.42492e-006
Heightened Def Con from 1.42492e-006 to 1.42494e-006
Heightened Def Con from 1.42494e-006 to 1.42494e-006
Heightened Def Con from 1.42497e-006 to 1.42497e-006
Heightened Def Con from 1.42497e-006 to 1.42499e-006
Heightened Def Con from 1.42499e-006 to 1.42499e-006
Heightened Def Con from 1.42499e-006 to 1.425e-006
Heightened Def Con from 1.425e-006 to 1.425e-006
Heightened Def Con from 1.425e-006 to 1.42501e-006
Heightened Def Con from 1.42501e-006 to 1.42501e-006
Heightened Def Con from 1.42502e-006 to 1.42502e-006
Heightened Def Con from 1.42502e-006 +to 1.42602e-006
Heightened Def Con from 1.42602e-006 to 1.42602e-006
Heightened Def Con from 1.42603e-006 to 1.42604e-006
Heightened Def Con from 1.42605e-006 to 1.42605e-006
Heightened Def Con from 1.42606e-006 +to 1.42706e-006
Heightened Def Con from 1.42706e-006 to 1.42706e-006
Heightened Def Con from 1.42706e-006 to 1.42708e-006
Heightened Def Con from 1.42708e-006 to 1.4271e-006
Heightened Def Con from 1.4271e-006 to 1.4271e-006
Heightened Def Con from 1.4271e-006 to 1.42711e-006
Heightened Def Con from 1.42711e-006 to 1.42713e-006
Heightened Def Con from 1.42713e-006 to 1.42715e-006
Heightened Def Con from 1.42716e-006 to 1.42716e-006
Heightened Def Con from 1.42716e-006 +to 1.42816e-006
Heightened Def Con from 1.42816e-006 to 1.42816e-006
Heightened Def Con from 1.42817e-006 to 1.42817e-006
Heightened Def Con from 1.42817e-006 to 1.42818e-006
Heightened Def Con from 1.4282e-006 to 1.4282e-006
Heightened Def Con from 1.4282e-006 to 1.4282e-006
Heightened Def Con from 1.42821e-006 to 1.42821e-006
Heightened Def Con from 1.42821e-006 +to 1.42921e-006
Heightened Def Con from 1.42921e-006 to 1.42922e-006
Heightened Def Con from 1.42922e-006 to 1.42923e-006
Heightened Def Con from 1.42924e-006 to 1.42925e-006
Heightened Def Con from 1.42932e-006 to 1.42932e-006
Heightened Def Con from 1.42933e-006 to 1.42934e-006
Heightened Def Con from 1.42934e-006 to 1.42935e-006
Heightened Def Con from 1.42935e-006 to 1.42935e-006
Heightened Def Con from 1.42935e-006 to 1.42936e-006
Heightened Def Con from 1.42936e-006 +to 1.43036e-006
Heightened Def Con from 1.43037e-006 to 1.43038e-006
Heightened Def Con from 1.43039e-006 to 1.43039e-006
Heightened Def Con from 1.43039e-006 to 1.43039e-006
Heightened Def Con from 1.43039e-006 to 1.43041e-006
Heightened Def Con from 1.43042e-006 to 1.43042e-006
Heightened Def Con from 1.43042e-006 to 1.43044e-006
Heightened Def Con from 1.43046e-006 to 1.43047e-006
Heightened Def Con from 1.43047e-006 ++++to 1.43047e-006
Heightened Def Con from 1.43047e-006 +to 1.43049e-006
Heightened Def Con from 1.43051e-006 to 1.43053e-006
Heightened Def Con from 1.43053e-006 ++to 1.43053e-006
Heightened Def Con from 1.43053e-006 ++++to 1.43053e-006
Heightened Def Con from 1.43053e-006 to 1.43056e-006
Heightened Def Con from 1.43056e-006 to 1.43057e-006
Heightened Def Con from 1.43058e-006 to 1.43059e-006
Heightened Def Con from 1.43059e-006 to 1.43061e-006
Heightened Def Con from 1.43061e-006 to 1.43063e-006
Heightened Def Con from 1.43063e-006 to 1.43066e-006
Heightened Def Con from 1.43067e-006 +to 1.43167e-006
Heightened Def Con from 1.43167e-006 ++to 1.43167e-006
Heightened Def Con from 1.43168e-006 to 1.43168e-006
Heightened Def Con from 1.43168e-006 to 1.43168e-006
Heightened Def Con from 1.43168e-006 to 1.43169e-006
Heightened Def Con from 1.43169e-006 to 1.4317e-006
Heightened Def Con from 1.4317e-006 ++++++++++++++++++to 1.4327e-006
Heightened Def Con from 1.4327e-006 +++++++++++++++to 1.4327e-006
Heightened Def Con from 1.4327e-006 ++++++++++++++++++to 1.43282e-006
Heightened Def Con from 1.43282e-006 to 1.43282e-006
Heightened Def Con from 1.43283e-006 to 1.43285e-006
Heightened Def Con from 1.43285e-006 to 1.43287e-006
Heightened Def Con from 1.43287e-006 to 1.43287e-006
Heightened Def Con from 1.43287e-006 to 1.43289e-006
Heightened Def Con from 1.43289e-006 to 1.43291e-006
Heightened Def Con from 1.43291e-006 to 1.43291e-006
Heightened Def Con from 1.43292e-006 to 1.43295e-006
Heightened Def Con from 1.43295e-006 to 1.43296e-006
Heightened Def Con from 1.43296e-006 to 1.43298e-006
Heightened Def Con from 1.43298e-006 to 1.43299e-006
Heightened Def Con from 1.433e-006 to 1.433e-006
Heightened Def Con from 1.43301e-006 to 1.43302e-006
Heightened Def Con from 1.43305e-006 to 1.43306e-006
Heightened Def Con from 1.43306e-006 to 1.43306e-006
Heightened Def Con from 1.43306e-006 to 1.43306e-006
Heightened Def Con from 1.43307e-006 to 1.43308e-006
Heightened Def Con from 1.43311e-006 to 1.43311e-006
Heightened Def Con from 1.43312e-006 +to 1.43412e-006
Heightened Def Con from 1.43412e-006 +++++++to 1.43412e-006
Heightened Def Con from 1.43412e-006 +++to 1.43412e-006
Heightened Def Con from 1.43412e-006 to 1.43412e-006
Heightened Def Con from 1.43412e-006 +++++++++++++to 1.43412e-006
Heightened Def Con from 1.43412e-006 +++to 1.43412e-006
Heightened Def Con from 1.43412e-006 +to 1.43414e-006
Heightened Def Con from 1.43418e-006 to 1.4342e-006
Heightened Def Con from 1.4342e-006 to 1.4342e-006
Heightened Def Con from 1.4342e-006 to 1.4342e-006
Heightened Def Con from 1.4342e-006 to 1.43422e-006
Heightened Def Con from 1.43422e-006 to 1.43424e-006
Heightened Def Con from 1.43425e-006 to 1.43425e-006
Heightened Def Con from 1.43425e-006 to 1.43427e-006
Heightened Def Con from 1.43427e-006 to 1.4343e-006
Heightened Def Con from 1.4343e-006 to 1.43431e-006
Heightened Def Con from 1.43431e-006 to 1.43432e-006
Heightened Def Con from 1.43434e-006 +to 1.43534e-006
Heightened Def Con from 1.43534e-006 +++to 1.43534e-006
Heightened Def Con from 1.43534e-006 +to 1.43534e-006
Heightened Def Con from 1.43534e-006 to 1.43534e-006
Heightened Def Con from 1.43534e-006 to 1.43534e-006
Heightened Def Con from 1.43534e-006 to 1.43535e-006
Heightened Def Con from 1.43535e-006 to 1.43536e-006
Heightened Def Con from 1.43536e-006 to 1.43536e-006
Heightened Def Con from 1.43536e-006 to 1.43537e-006
Heightened Def Con from 1.43537e-006 to 1.43537e-006
Heightened Def Con from 1.43537e-006 to 1.43538e-006
Heightened Def Con from 1.43538e-006 to 1.43538e-006
Heightened Def Con from 1.43538e-006 to 1.43539e-006
Heightened Def Con from 1.43539e-006 +to 1.43639e-006
Heightened Def Con from 1.43639e-006 +to 1.43639e-006
Heightened Def Con from 1.43639e-006 to 1.43641e-006
Heightened Def Con from 1.43642e-006 to 1.43643e-006
Heightened Def Con from 1.43643e-006 to 1.43643e-006
Heightened Def Con from 1.43643e-006 to 1.43644e-006
Heightened Def Con from 1.43644e-006 to 1.43646e-006
Heightened Def Con from 1.43647e-006 to 1.43647e-006
Heightened Def Con from 1.43647e-006 to 1.43647e-006
Heightened Def Con from 1.43648e-006 to 1.4365e-006
Heightened Def Con from 1.43651e-006 to 1.43651e-006
Heightened Def Con from 1.43651e-006 to 1.43652e-006
Heightened Def Con from 1.43652e-006 to 1.43652e-006
Heightened Def Con from 1.43653e-006 to 1.43654e-006
Heightened Def Con from 1.43654e-006 to 1.43654e-006
Heightened Def Con from 1.43654e-006 to 1.43654e-006
Heightened Def Con from 1.43654e-006 to 1.43656e-006
Heightened Def Con from 1.43656e-006 to 1.43656e-006
Heightened Def Con from 1.43659e-006 ++++to 1.43659e-006
Heightened Def Con from 1.43659e-006 to 1.43662e-006
Heightened Def Con from 1.43663e-006 +to 1.43763e-006
Heightened Def Con from 1.43763e-006 to 1.43764e-006
Heightened Def Con from 1.43764e-006 to 1.43765e-006
Heightened Def Con from 1.43766e-006 to 1.43766e-006
Heightened Def Con from 1.43767e-006 to 1.43768e-006
Heightened Def Con from 1.43768e-006 to 1.4377e-006
Heightened Def Con from 1.4377e-006 to 1.43772e-006
Heightened Def Con from 1.43772e-006 to 1.43773e-006
Heightened Def Con from 1.43775e-006 to 1.43778e-006
Heightened Def Con from 1.43778e-006 to 1.43778e-006
Heightened Def Con from 1.43778e-006 to 1.4378e-006
Heightened Def Con from 1.4378e-006 to 1.4378e-006
Heightened Def Con from 1.43781e-006 to 1.43781e-006
Heightened Def Con from 1.43781e-006 +to 1.43781e-006
Heightened Def Con from 1.43781e-006 to 1.43781e-006
Heightened Def Con from 1.43783e-006 to 1.43784e-006
Heightened Def Con from 1.43784e-006 ++to 1.43785e-006
Heightened Def Con from 1.43785e-006 +to 1.43785e-006
Heightened Def Con from 1.43785e-006 to 1.43785e-006
Heightened Def Con from 1.43785e-006 to 1.43785e-006
Heightened Def Con from 1.43786e-006 to 1.43789e-006
Heightened Def Con from 1.43789e-006 to 1.43791e-006
Heightened Def Con from 1.43791e-006 to 1.43791e-006
Heightened Def Con from 1.43792e-006 +to 1.43892e-006
Heightened Def Con from 1.43892e-006 to 1.43892e-006
Heightened Def Con from 1.43892e-006 to 1.43894e-006
Heightened Def Con from 1.43895e-006 to 1.43895e-006
Heightened Def Con from 1.43895e-006 ++++to 1.43895e-006
Heightened Def Con from 1.43895e-006 +to 1.43995e-006
Heightened Def Con from 1.43995e-006 to 1.43997e-006
Heightened Def Con from 1.43998e-006 ++++++++++++++++++to 1.44098e-006
Heightened Def Con from 1.95041e-006 to 1.95041e-006
Heightened Def Con from 1.95041e-006 to 1.95154e-006
Heightened Def Con from 1.95242e-006 to 1.95344e-006
Heightened Def Con from 1.95344e-006 to 1.95344e-006
Heightened Def Con from 1.95344e-006 to 1.95544e-006
Heightened Def Con from 1.95546e-006 to 1.95546e-006
Heightened Def Con from 1.95546e-006 ++to 1.95558e-006
Heightened Def Con from 1.95558e-006 +to 1.95558e-006
Heightened Def Con from 1.95558e-006 to 1.95558e-006
Heightened Def Con from 1.95558e-006 +to 1.9556e-006
Heightened Def Con from 1.95563e-006 to 1.95563e-006
Heightened Def Con from 1.95563e-006 +to 1.95563e-006
Heightened Def Con from 1.95563e-006 to 1.95565e-006
Heightened Def Con from 1.95565e-006 +to 1.95765e-006
Heightened Def Con from 1.96648e-006 to 1.9676e-006
Heightened Def Con from 1.97371e-006 to 1.97371e-006
Heightened Def Con from 1.97372e-006 to 1.97375e-006
Heightened Def Con from 1.97379e-006 +to 1.97479e-006
Heightened Def Con from 1.97479e-006 to 1.97491e-006
Heightened Def Con from 1.97491e-006 ++to 1.97491e-006
Heightened Def Con from 1.97491e-006 to 1.97491e-006
Heightened Def Con from 1.97491e-006 +to 1.97493e-006
Heightened Def Con from 1.97493e-006 to 1.97494e-006
Heightened Def Con from 1.97494e-006 to 1.97494e-006
Heightened Def Con from 1.97494e-006 to 1.97494e-006
Heightened Def Con from 1.97494e-006 to 1.97495e-006
Heightened Def Con from 1.97495e-006 to 1.97495e-006
Heightened Def Con from 1.97495e-006 +to 1.97495e-006
Heightened Def Con from 1.97495e-006 to 1.97495e-006
Heightened Def Con from 1.97495e-006 ++to 1.97495e-006
Heightened Def Con from 1.97495e-006 +to 1.9752e-006
Heightened Def Con from 1.9752e-006 to 1.9752e-006
Heightened Def Con from 1.9752e-006 +++to 1.9752e-006
Heightened Def Con from 1.9752e-006 +++++to 1.9752e-006
Heightened Def Con from 1.9752e-006 +to 1.9752e-006
Heightened Def Con from 1.9752e-006 to 1.9752e-006
Heightened Def Con from 1.9752e-006 +to 1.9752e-006
Heightened Def Con from 1.9752e-006 to 1.9752e-006
Heightened Def Con from 1.9752e-006 to 1.9752e-006
Heightened Def Con from 1.9752e-006 to 1.9752e-006
Heightened Def Con from 1.9752e-006 +to 1.9752e-006
Heightened Def Con from 1.9752e-006 +to 1.9752e-006
Heightened Def Con from 1.9752e-006 +to 1.9752e-006
Heightened Def Con from 1.9752e-006 +to 1.9752e-006
Heightened Def Con from 1.9752e-006 +to 1.97545e-006
Heightened Def Con from 1.9757e-006 to 1.9757e-006
Heightened Def Con from 1.9757e-006 ++++to 1.9757e-006
Heightened Def Con from 1.9757e-006 to 1.97571e-006
Heightened Def Con from 1.97571e-006 to 1.97571e-006
Heightened Def Con from 1.97571e-006 +to 1.97571e-006
Heightened Def Con from 1.97571e-006 to 1.97571e-006
Heightened Def Con from 1.97571e-006 +to 1.97571e-006
Heightened Def Con from 1.97571e-006 +to 1.97571e-006
Heightened Def Con from 1.97571e-006 +to 1.97571e-006
Heightened Def Con from 1.97571e-006 to 1.97571e-006
Heightened Def Con from 1.97571e-006 to 1.97571e-006
Heightened Def Con from 1.97571e-006 to 1.97571e-006
Heightened Def Con from 1.97571e-006 to 1.97571e-006
Heightened Def Con from 1.97571e-006 +to 1.97571e-006
Heightened Def Con from 1.97571e-006 +to 1.97571e-006
Heightened Def Con from 1.97571e-006 ++to 1.97571e-006
Heightened Def Con from 1.97571e-006 to 1.97571e-006
Heightened Def Con from 1.97571e-006 to 1.97571e-006
Heightened Def Con from 1.97571e-006 to 1.97571e-006
Heightened Def Con from 1.97571e-006 to 1.97571e-006
Heightened Def Con from 1.97571e-006 to 1.97571e-006
Heightened Def Con from 1.97571e-006 to 1.97571e-006
Heightened Def Con from 1.97571e-006 to 1.97571e-006
Heightened Def Con from 1.97571e-006 to 1.97571e-006
Heightened Def Con from 1.97571e-006 to 1.97571e-006
Heightened Def Con from 1.97571e-006 to 1.97571e-006
Heightened Def Con from 1.97571e-006 +to 1.97573e-006
Heightened Def Con from 1.97573e-006 to 1.97573e-006
Heightened Def Con from 1.97573e-006 to 1.97573e-006
Heightened Def Con from 1.97573e-006 to 1.97573e-006
Heightened Def Con from 1.97573e-006 ++to 1.97574e-006
Heightened Def Con from 1.97574e-006 to 1.97574e-006
Heightened Def Con from 1.97574e-006 to 1.97574e-006
Heightened Def Con from 1.97574e-006 to 1.97574e-006
Heightened Def Con from 1.97574e-006 +++++to 1.97575e-006
Heightened Def Con from 1.97575e-006 ++to 1.97575e-006
Heightened Def Con from 1.97575e-006 +to 1.97577e-006
Heightened Def Con from 1.97577e-006 to 1.97577e-006
Heightened Def Con from 1.97577e-006 to 1.97577e-006
Heightened Def Con from 1.97577e-006 ++to 1.97578e-006
Heightened Def Con from 1.97578e-006 to 1.97578e-006
Heightened Def Con from 1.97578e-006 ++to 1.97578e-006
Heightened Def Con from 1.97578e-006 to 1.97578e-006
Heightened Def Con from 1.97578e-006 ++to 1.97579e-006
Heightened Def Con from 1.97579e-006 to 1.97591e-006
Heightened Def Con from 1.97591e-006 +++++++++++++to 1.97691e-006
Heightened Def Con from 1.97691e-006 +++++++++++++to 1.97704e-006
Heightened Def Con from 1.97704e-006 ++++++++++++++to 1.97804e-006
Heightened Def Con from 1.97804e-006 +++++++++++++to 1.97805e-006
Heightened Def Con from 1.97805e-006 ++++++++++++to 1.97805e-006
Heightened Def Con from 1.97805e-006 +++++++++++++to 1.97807e-006
Heightened Def Con from 1.97807e-006 +++++++++++++to 1.97807e-006
Heightened Def Con from 1.97807e-006 +++++++++++++to 1.97819e-006
Heightened Def Con from 1.97819e-006 +++++++++++++to 1.97832e-006
Heightened Def Con from 1.97832e-006 +++++++++++++to 1.97844e-006
Heightened Def Con from 1.97844e-006 +++++++++++++to 1.97844e-006
Heightened Def Con from 1.97844e-006 +++++++++++++to 1.97844e-006
Heightened Def Con from 1.97844e-006 +++++++++++++to 1.97846e-006
Heightened Def Con from 1.97846e-006 +++++++++++++to 1.97846e-006
Heightened Def Con from 1.97846e-006 +++++++++++++to 1.97846e-006
Heightened Def Con from 1.97846e-006 +++++++++++++to 1.97846e-006
Heightened Def Con from 1.97846e-006 +++++++++++++to 1.97846e-006
Heightened Def Con from 1.97846e-006 +++++++++++++to 1.97848e-006
Heightened Def Con from 1.97848e-006 ++++++++++++++to 1.97848e-006
Heightened Def Con from 1.97848e-006 ++++++++++++++to 1.97848e-006
Heightened Def Con from 1.97848e-006 ++++++++++++++to 1.97848e-006
Heightened Def Con from 1.97848e-006 +++++++++++++to 1.97848e-006
Heightened Def Con from 1.97848e-006 +++++++++++++to 1.97848e-006
Heightened Def Con from 1.97848e-006 +++++++++++++to 1.9785e-006
Heightened Def Con from 1.9785e-006 +++++++++++++to 1.97851e-006
Heightened Def Con from 1.97851e-006 +++++++++++++to 1.97851e-006
Heightened Def Con from 1.97851e-006 +++++++++++++to 1.97851e-006
Heightened Def Con from 1.97851e-006 ++++++++++++to 1.97864e-006
Heightened Def Con from 1.97864e-006 ++++++++++++to 1.97864e-006
Heightened Def Con from 1.97864e-006 +++++++++++++to 1.97864e-006
Heightened Def Con from 1.97864e-006 +++++++++++++to 1.97865e-006
Heightened Def Con from 1.97865e-006 +++++++++++++to 1.97865e-006
Heightened Def Con from 1.97865e-006 +++++++++++++to 1.97865e-006
Heightened Def Con from 1.97865e-006 +++++++++++++to 1.97865e-006
Heightened Def Con from 1.97865e-006 +++++++++++++to 1.97865e-006
Heightened Def Con from 1.97865e-006 +++++++++++++to 1.97865e-006
Heightened Def Con from 1.97865e-006 +++++++++++++to 1.97878e-006
Heightened Def Con from 1.97878e-006 +++++++++++++to 1.9789e-006
Heightened Def Con from 1.9789e-006 +++++++++++++to 1.9789e-006
Heightened Def Con from 1.9789e-006 ++++++++++++++to 1.97903e-006
Heightened Def Con from 1.97903e-006 ++++++++++++++to 1.97904e-006
Heightened Def Con from 1.97904e-006 ++++++++++++++to 1.97904e-006
Heightened Def Con from 1.97904e-006 ++++++++++++++to 1.97904e-006
Heightened Def Con from 1.97904e-006 +++++++++++++++to 1.98004e-006
Heightened Def Con from 1.98004e-006 ++++++++++++++to 1.98006e-006
Heightened Def Con from 1.98006e-006 +++++++++++++++to 1.98106e-006
Heightened Def Con from 1.98106e-006 +++++++++++++++to 1.98118e-006
Heightened Def Con from 1.98118e-006 +++++++++++++++to 1.9812e-006
Heightened Def Con from 1.9812e-006 ++++++++++++++to 1.98132e-006
Heightened Def Con from 1.98132e-006 ++++++++++++++to 1.98232e-006
Heightened Def Con from 1.98232e-006 +++++++++++++++to 1.98332e-006
Heightened Def Con from 2.01211e-006 to 2.01411e-006
Heightened Def Con from 2.01412e-006 to 2.01426e-006
Heightened Def Con from 2.01426e-006 to 2.01426e-006
Heightened Def Con from 2.01426e-006 to 2.01426e-006
Heightened Def Con from 2.01426e-006 to 2.01426e-006
Heightened Def Con from 2.01426e-006 to 2.01426e-006
Heightened Def Con from 2.01426e-006 to 2.01426e-006
Heightened Def Con from 2.01426e-006 ++to 2.01426e-006
Heightened Def Con from 2.01427e-006 to 2.01427e-006
Heightened Def Con from 2.01428e-006 +++++++++++++to 2.01441e-006
Heightened Def Con from 2.01441e-006 +++++++++++++to 2.01441e-006
Heightened Def Con from 2.01441e-006 to 2.01441e-006
Heightened Def Con from 2.01441e-006 ++++++++++++++to 2.01442e-006
Heightened Def Con from 2.01442e-006 ++++to 2.01442e-006
Heightened Def Con from 2.01442e-006 +++++++++++++to 2.01442e-006
Heightened Def Con from 2.01442e-006 ++++to 2.01442e-006
Heightened Def Con from 2.01442e-006 to 2.01442e-006
Heightened Def Con from 2.01442e-006 ++++to 2.01442e-006
Heightened Def Con from 2.01442e-006 ++to 2.01542e-006
Heightened Def Con from 2.01542e-006 to 2.01542e-006
Heightened Def Con from 2.01542e-006 to 2.01542e-006
Heightened Def Con from 2.01542e-006 +++++++++++++++to 2.01642e-006
Heightened Def Con from 2.03189e-006 to 2.03389e-006
Heightened Def Con from 2.03392e-006 to 2.03405e-006
Heightened Def Con from 2.03408e-006 to 2.0341e-006
Heightened Def Con from 2.0341e-006 to 2.03411e-006
Heightened Def Con from 2.03411e-006 to 2.03424e-006
Heightened Def Con from 2.03424e-006 to 2.03436e-006
Heightened Def Con from 2.03436e-006 to 2.03538e-006
Heightened Def Con from 2.03552e-006 to 2.03577e-006
Heightened Def Con from 2.0358e-006 to 2.0358e-006
Heightened Def Con from 2.0358e-006 to 2.0358e-006
Heightened Def Con from 2.0358e-006 to 2.03681e-006
Heightened Def Con from 2.03685e-006 to 2.03686e-006
Heightened Def Con from 2.03687e-006 to 2.03799e-006
Heightened Def Con from 2.03799e-006 to 2.03999e-006
Heightened Def Con from 2.04261e-006 to 2.04461e-006
Heightened Def Con from 2.04492e-006 to 2.04592e-006
Heightened Def Con from 2.04592e-006 to 2.04792e-006
Heightened Def Con from 2.0523e-006 to 2.05242e-006
Heightened Def Con from 2.05242e-006 to 2.05267e-006
Heightened Def Con from 2.05267e-006 to 2.05269e-006
Heightened Def Con from 2.05269e-006 to 2.05282e-006
Heightened Def Con from 2.05294e-006 to 2.05294e-006
Heightened Def Con from 2.05294e-006 +to 2.05394e-006
Heightened Def Con from 2.05394e-006 to 2.05495e-006
Heightened Def Con from 2.05499e-006 to 2.05499e-006
Heightened Def Con from 2.05499e-006 to 2.05501e-006
Heightened Def Con from 2.05501e-006 +to 2.05602e-006
Heightened Def Con from 2.05602e-006 +++++++++++++to 2.05702e-006
Heightened Def Con from 2.05936e-006 to 2.06048e-006
Heightened Def Con from 2.06081e-006 to 2.06095e-006
Heightened Def Con from 2.06095e-006 to 2.06097e-006
Heightened Def Con from 2.06097e-006 to 2.06097e-006
Heightened Def Con from 2.06097e-006 +to 2.06109e-006
Heightened Def Con from 2.06109e-006 to 2.0611e-006
Heightened Def Con from 2.0611e-006 to 2.0611e-006
Heightened Def Con from 2.0611e-006 to 2.06113e-006
Heightened Def Con from 2.06123e-006 to 2.06137e-006
Heightened Def Con from 2.06137e-006 to 2.06151e-006
Heightened Def Con from 2.06151e-006 +to 2.06164e-006
Heightened Def Con from 2.06164e-006 to 2.06177e-006
Heightened Def Con from 2.06177e-006 to 2.06177e-006
Heightened Def Con from 2.06177e-006 to 2.06177e-006
Heightened Def Con from 2.06177e-006 to 2.06177e-006
Heightened Def Con from 2.06177e-006 to 2.06177e-006
Heightened Def Con from 2.06178e-006 to 2.06178e-006
Heightened Def Con from 2.06178e-006 to 2.06178e-006
Heightened Def Con from 2.06178e-006 ++to 2.06178e-006
Heightened Def Con from 2.06178e-006 to 2.06178e-006
Heightened Def Con from 2.06178e-006 to 2.06178e-006
Heightened Def Con from 2.06179e-006 to 2.06179e-006
Heightened Def Con from 2.06179e-006 to 2.06179e-006
Heightened Def Con from 2.06179e-006 to 2.06179e-006
Heightened Def Con from 2.06179e-006 +to 2.06179e-006
Heightened Def Con from 2.06179e-006 +to 2.06179e-006
Heightened Def Con from 2.06179e-006 to 2.06179e-006
Heightened Def Con from 2.06179e-006 +to 2.06179e-006
Heightened Def Con from 2.06179e-006 to 2.06179e-006
Heightened Def Con from 2.06179e-006 to 2.06179e-006
Heightened Def Con from 2.06179e-006 to 2.06179e-006
Heightened Def Con from 2.06179e-006 +to 2.06179e-006
Heightened Def Con from 2.06179e-006 ++to 2.06179e-006
Heightened Def Con from 2.06179e-006 to 2.06179e-006
Heightened Def Con from 2.06179e-006 to 2.06179e-006
Heightened Def Con from 2.06179e-006 to 2.06179e-006
Heightened Def Con from 2.06179e-006 to 2.06179e-006
Heightened Def Con from 2.06179e-006 +to 2.06179e-006
Heightened Def Con from 2.06179e-006 to 2.06179e-006
Heightened Def Con from 2.06179e-006 +to 2.06179e-006
Heightened Def Con from 2.06179e-006 to 2.06179e-006
Heightened Def Con from 2.06179e-006 to 2.06179e-006
Heightened Def Con from 2.06179e-006 to 2.06179e-006
Heightened Def Con from 2.06179e-006 to 2.06179e-006
Heightened Def Con from 2.06179e-006 to 2.06179e-006
Heightened Def Con from 2.06179e-006 to 2.06179e-006
Heightened Def Con from 2.06179e-006 to 2.06179e-006
Heightened Def Con from 2.06179e-006 to 2.06179e-006
Heightened Def Con from 2.06179e-006 to 2.06179e-006
Heightened Def Con from 2.06179e-006 to 2.06179e-006
Heightened Def Con from 2.06179e-006 to 2.06179e-006
Heightened Def Con from 2.06179e-006 to 2.06179e-006
Heightened Def Con from 2.06179e-006 to 2.06179e-006
Heightened Def Con from 2.06179e-006 to 2.06179e-006
Heightened Def Con from 2.06179e-006 to 2.06179e-006
Heightened Def Con from 2.06179e-006 to 2.06179e-006
Heightened Def Con from 2.06179e-006 to 2.06179e-006
Heightened Def Con from 2.06179e-006 to 2.06179e-006
Heightened Def Con from 2.06179e-006 to 2.06179e-006
Heightened Def Con from 2.06179e-006 to 2.06179e-006
Heightened Def Con from 2.06179e-006 ++to 2.06279e-006
Heightened Def Con from 2.06279e-006 to 2.06381e-006
Heightened Def Con from 2.06381e-006 to 2.06481e-006
Heightened Def Con from 2.06495e-006 to 2.06509e-006
Heightened Def Con from 2.0652e-006 to 2.06545e-006
Heightened Def Con from 2.06624e-006 +to 2.06649e-006
Heightened Def Con from 2.06652e-006 to 2.06852e-006
Heightened Def Con from 2.07063e-006 to 2.07088e-006
Heightened Def Con from 2.07264e-006 to 2.07278e-006
Heightened Def Con from 2.07278e-006 to 2.07281e-006
Heightened Def Con from 2.07286e-006 to 2.07287e-006
Heightened Def Con from 2.07287e-006 to 2.07301e-006
Heightened Def Con from 2.07336e-006 to 2.07449e-006
Heightened Def Con from 2.07474e-006 to 2.07474e-006
Heightened Def Con from 2.07547e-006 +to 2.07747e-006
Heightened Def Con from 2.10753e-006 to 2.10778e-006
Heightened Def Con from 2.10778e-006 to 2.10978e-006
Heightened Def Con from 2.11184e-006 to 2.11384e-006
Heightened Def Con from 2.12767e-006 to 2.12781e-006
Heightened Def Con from 2.12787e-006 to 2.129e-006
Heightened Def Con from 2.13148e-006 to 2.13348e-006
Heightened Def Con from 2.13382e-006 to 2.13382e-006
Heightened Def Con from 2.13382e-006 to 2.13482e-006
Heightened Def Con from 2.13482e-006 to 2.13595e-006
Heightened Def Con from 2.13626e-006 to 2.13726e-006
Heightened Def Con from 2.13726e-006 to 2.13739e-006
Heightened Def Con from 2.13739e-006 to 2.13739e-006
Heightened Def Con from 2.13739e-006 to 2.13739e-006
Heightened Def Con from 2.13739e-006 to 2.13764e-006
Heightened Def Con from 2.13764e-006 to 2.13767e-006
Heightened Def Con from 2.13771e-006 to 2.13785e-006
Heightened Def Con from 2.13785e-006 to 2.13787e-006
Heightened Def Con from 2.13787e-006 to 2.13787e-006
Heightened Def Con from 2.13787e-006 to 2.1379e-006
Heightened Def Con from 2.1379e-006 to 2.1379e-006
Heightened Def Con from 2.1379e-006 to 2.1379e-006
Heightened Def Con from 2.1379e-006 to 2.1379e-006
Heightened Def Con from 2.1379e-006 to 2.13792e-006
Heightened Def Con from 2.13793e-006 to 2.13793e-006
Heightened Def Con from 2.13793e-006 to 2.13894e-006
Heightened Def Con from 2.13894e-006 to 2.13994e-006
Heightened Def Con from 2.13994e-006 to 2.13995e-006
Heightened Def Con from 2.13995e-006 to 2.13998e-006
Heightened Def Con from 2.13998e-006 to 2.13998e-006
Heightened Def Con from 2.13998e-006 to 2.14012e-006
Heightened Def Con from 2.14012e-006 to 2.14124e-006
Heightened Def Con from 2.1415e-006 to 2.14163e-006
Heightened Def Con from 2.14163e-006 to 2.14175e-006
Heightened Def Con from 2.14181e-006 to 2.14293e-006
Heightened Def Con from 2.14294e-006 to 2.14319e-006
Heightened Def Con from 2.14322e-006 to 2.14522e-006
Heightened Def Con from 2.14553e-006 to 2.14666e-006
Heightened Def Con from 2.14666e-006 to 2.14666e-006
Heightened Def Con from 2.14666e-006 to 2.14666e-006
Heightened Def Con from 2.14666e-006 to 2.14666e-006
Heightened Def Con from 2.14666e-006 to 2.14767e-006
Heightened Def Con from 2.14768e-006 to 2.14768e-006
Heightened Def Con from 2.1477e-006 to 2.1497e-006
Heightened Def Con from 2.14974e-006 to 2.15174e-006
Heightened Def Con from 2.15199e-006 to 2.15299e-006
Heightened Def Con from 2.15299e-006 to 2.15499e-006
Heightened Def Con from 2.15507e-006 to 2.15707e-006
Heightened Def Con from 2.16657e-006 to 2.16682e-006
Heightened Def Con from 2.16683e-006 to 2.16883e-006
Heightened Def Con from 2.17456e-006 to 2.17456e-006
Heightened Def Con from 2.17456e-006 to 2.17456e-006
Heightened Def Con from 2.17456e-006 to 2.17456e-006
Heightened Def Con from 2.17456e-006 +to 2.17456e-006
Heightened Def Con from 2.17456e-006 to 2.17457e-006
Heightened Def Con from 2.17457e-006 to 2.17458e-006
Heightened Def Con from 2.1746e-006 to 2.17461e-006
Heightened Def Con from 2.17461e-006 to 2.17462e-006
Heightened Def Con from 2.17462e-006 +to 2.17465e-006
Heightened Def Con from 2.17468e-006 to 2.1758e-006
Heightened Def Con from 2.1758e-006 to 2.1758e-006
Heightened Def Con from 2.1758e-006 to 2.1758e-006
Heightened Def Con from 2.1758e-006 to 2.1758e-006
Heightened Def Con from 2.1758e-006 +to 2.17582e-006
Heightened Def Con from 2.17582e-006 to 2.17584e-006
Heightened Def Con from 2.17584e-006 to 2.17584e-006
Heightened Def Con from 2.17584e-006 to 2.17584e-006
Heightened Def Con from 2.17584e-006 to 2.17598e-006
Heightened Def Con from 2.17602e-006 to 2.17602e-006
Heightened Def Con from 2.17602e-006 to 2.17714e-006
Heightened Def Con from 2.17715e-006 to 2.1774e-006
Heightened Def Con from 2.1774e-006 to 2.17741e-006
Heightened Def Con from 2.17742e-006 to 2.17745e-006
Heightened Def Con from 2.17745e-006 to 2.17857e-006
Heightened Def Con from 2.17868e-006 to 2.17868e-006
Heightened Def Con from 2.17868e-006 +to 2.18069e-006
Heightened Def Con from 2.18077e-006 to 2.1819e-006
Heightened Def Con from 2.1819e-006 to 2.18191e-006
Heightened Def Con from 2.18191e-006 to 2.18193e-006
Heightened Def Con from 2.18193e-006 to 2.18194e-006
Heightened Def Con from 2.18197e-006 to 2.18199e-006
Heightened Def Con from 2.18199e-006 to 2.18199e-006
Heightened Def Con from 2.18199e-006 to 2.18399e-006
Heightened Def Con from 2.18651e-006 to 2.18651e-006
Heightened Def Con from 2.18652e-006 to 2.18764e-006
Heightened Def Con from 2.18768e-006 to 2.18781e-006
Heightened Def Con from 2.18781e-006 to 2.18806e-006
Heightened Def Con from 2.1886e-006 to 2.18873e-006
Heightened Def Con from 2.18873e-006 to 2.18975e-006
Heightened Def Con from 2.19197e-006 to 2.19197e-006
Heightened Def Con from 2.19197e-006 to 2.19222e-006
Heightened Def Con from 2.19222e-006 to 2.19322e-006
Heightened Def Con from 2.19323e-006 to 2.19435e-006
Heightened Def Con from 2.19435e-006 to 2.1946e-006
Heightened Def Con from 2.1946e-006 to 2.19462e-006
Heightened Def Con from 2.19462e-006 to 2.19487e-006
Heightened Def Con from 2.1949e-006 to 2.19492e-006
Heightened Def Con from 2.19492e-006 to 2.19592e-006
Heightened Def Con from 2.19593e-006 to 2.19793e-006
Heightened Def Con from 2.19793e-006 to 2.19993e-006
Heightened Def Con from 2.20293e-006 to 2.20305e-006
Heightened Def Con from 2.20305e-006 to 2.20405e-006
Heightened Def Con from 2.20405e-006 to 2.20418e-006
Heightened Def Con from 2.20418e-006 to 2.20419e-006
Heightened Def Con from 2.20425e-006 to 2.20426e-006
Heightened Def Con from 2.20426e-006 to 2.20626e-006
Heightened Def Con from 2.20769e-006 to 2.20773e-006
Heightened Def Con from 2.20794e-006 to 2.20809e-006
Heightened Def Con from 2.20809e-006 to 2.2091e-006
Heightened Def Con from 2.20933e-006 to 2.20933e-006
Heightened Def Con from 2.20933e-006 to 2.20935e-006
Heightened Def Con from 2.20935e-006 to 2.20948e-006
Heightened Def Con from 2.20948e-006 to 2.21049e-006
Heightened Def Con from 2.21052e-006 to 2.21064e-006
Heightened Def Con from 2.21066e-006 to 2.21066e-006
Heightened Def Con from 2.21066e-006 to 2.21079e-006
Heightened Def Con from 2.21086e-006 +to 2.21186e-006
Heightened Def Con from 2.21404e-006 +to 2.21404e-006
Heightened Def Con from 2.21404e-006 to 2.21404e-006
Heightened Def Con from 2.21404e-006 to 2.21404e-006
Heightened Def Con from 2.21404e-006 +to 2.21404e-006
Heightened Def Con from 2.21404e-006 to 2.21404e-006
Heightened Def Con from 2.21404e-006 to 2.21404e-006
Heightened Def Con from 2.21404e-006 +to 2.21404e-006
Heightened Def Con from 2.21404e-006 +to 2.21405e-006
Heightened Def Con from 2.21405e-006 +to 2.21405e-006
Heightened Def Con from 2.21406e-006 ++++to 2.21406e-006
Heightened Def Con from 2.21406e-006 +++++++++to 2.21506e-006
Heightened Def Con from 2.21506e-006 ++to 2.21518e-006
Heightened Def Con from 2.21518e-006 to 2.21532e-006
Heightened Def Con from 2.21532e-006 to 2.21532e-006
Heightened Def Con from 2.21532e-006 to 2.21533e-006
Heightened Def Con from 2.21533e-006 to 2.21533e-006
Heightened Def Con from 2.21533e-006 to 2.21533e-006
Heightened Def Con from 2.21533e-006 to 2.21533e-006
Heightened Def Con from 2.21533e-006 to 2.21533e-006
Heightened Def Con from 2.21533e-006 to 2.21533e-006
Heightened Def Con from 2.21533e-006 to 2.21534e-006
Heightened Def Con from 2.21534e-006 to 2.21534e-006
Heightened Def Con from 2.21534e-006 to 2.21534e-006
Heightened Def Con from 2.21534e-006 to 2.21534e-006
Heightened Def Con from 2.21534e-006 to 2.21534e-006
Heightened Def Con from 2.21534e-006 to 2.21534e-006
Heightened Def Con from 2.21534e-006 to 2.21534e-006
Heightened Def Con from 2.21534e-006 +to 2.21534e-006
Heightened Def Con from 2.21534e-006 to 2.21534e-006
Heightened Def Con from 2.21534e-006 to 2.21534e-006
Heightened Def Con from 2.21534e-006 to 2.21534e-006
Heightened Def Con from 2.21534e-006 to 2.21534e-006
Heightened Def Con from 2.21534e-006 to 2.21534e-006
Heightened Def Con from 2.21534e-006 to 2.21534e-006
Heightened Def Con from 2.21534e-006 to 2.21534e-006
Heightened Def Con from 2.21534e-006 to 2.21535e-006
Heightened Def Con from 2.21535e-006 to 2.21535e-006
Heightened Def Con from 2.21535e-006 to 2.21535e-006
Heightened Def Con from 2.21535e-006 to 2.21535e-006
Heightened Def Con from 2.21535e-006 to 2.21535e-006
Heightened Def Con from 2.21535e-006 to 2.21535e-006
Heightened Def Con from 2.21535e-006 to 2.21535e-006
Heightened Def Con from 2.21535e-006 to 2.21535e-006
Heightened Def Con from 2.21535e-006 to 2.21535e-006
Heightened Def Con from 2.21535e-006 to 2.21535e-006
Heightened Def Con from 2.21535e-006 ++++++++to 2.21537e-006
Heightened Def Con from 2.21537e-006 +to 2.21549e-006
Heightened Def Con from 2.21549e-006 +to 2.21662e-006
Heightened Def Con from 2.21687e-006 to 2.2169e-006
Heightened Def Con from 2.2169e-006 to 2.2179e-006
Heightened Def Con from 2.2179e-006 to 2.21804e-006
Heightened Def Con from 2.21804e-006 to 2.21806e-006
Heightened Def Con from 2.21806e-006 +to 2.21818e-006
Heightened Def Con from 2.2182e-006 to 2.2182e-006
Heightened Def Con from 2.2182e-006 to 2.21821e-006
Heightened Def Con from 2.21821e-006 to 2.21821e-006
Heightened Def Con from 2.21821e-006 to 2.21821e-006
Heightened Def Con from 2.21821e-006 to 2.21821e-006
Heightened Def Con from 2.21821e-006 to 2.21821e-006
Heightened Def Con from 2.21821e-006 to 2.21821e-006
Heightened Def Con from 2.21821e-006 +to 2.21821e-006
Heightened Def Con from 2.21821e-006 to 2.21821e-006
Heightened Def Con from 2.21821e-006 to 2.21821e-006
Heightened Def Con from 2.21821e-006 to 2.21821e-006
Heightened Def Con from 2.21821e-006 +to 2.21821e-006
Heightened Def Con from 2.21821e-006 +to 2.21821e-006
Heightened Def Con from 2.21821e-006 +to 2.21821e-006
Heightened Def Con from 2.21821e-006 +to 2.21822e-006
Heightened Def Con from 2.21822e-006 to 2.21822e-006
Heightened Def Con from 2.21822e-006 +to 2.21822e-006
Heightened Def Con from 2.21822e-006 to 2.21822e-006
Heightened Def Con from 2.21822e-006 +to 2.21822e-006
Heightened Def Con from 2.21822e-006 to 2.21822e-006
Heightened Def Con from 2.21822e-006 +to 2.21822e-006
Heightened Def Con from 2.21822e-006 to 2.21822e-006
Heightened Def Con from 2.21822e-006 to 2.21822e-006
Heightened Def Con from 2.21822e-006 to 2.21822e-006
Heightened Def Con from 2.21822e-006 +to 2.21822e-006
Heightened Def Con from 2.21822e-006 to 2.21822e-006
Heightened Def Con from 2.21822e-006 to 2.21822e-006
Heightened Def Con from 2.21822e-006 +to 2.21822e-006
Heightened Def Con from 2.21822e-006 to 2.21822e-006
Heightened Def Con from 2.21822e-006 +to 2.21822e-006
Heightened Def Con from 2.21822e-006 +to 2.21822e-006
Heightened Def Con from 2.21822e-006 +to 2.21822e-006
Heightened Def Con from 2.21822e-006 +to 2.21822e-006
Heightened Def Con from 2.21822e-006 to 2.21822e-006
Heightened Def Con from 2.21822e-006 +to 2.21822e-006
Heightened Def Con from 2.21822e-006 +to 2.21822e-006
Heightened Def Con from 2.21822e-006 +to 2.21822e-006
Heightened Def Con from 2.21822e-006 to 2.21822e-006
Heightened Def Con from 2.21822e-006 +to 2.21822e-006
Heightened Def Con from 2.21822e-006 ++++to 2.21822e-006
Heightened Def Con from 2.21822e-006 +to 2.21822e-006
Heightened Def Con from 2.21822e-006 +to 2.21822e-006
Heightened Def Con from 2.21822e-006 +to 2.21822e-006
Heightened Def Con from 2.21822e-006 to 2.21822e-006
Heightened Def Con from 2.21822e-006 +to 2.21822e-006
Heightened Def Con from 2.21822e-006 ++++to 2.21822e-006
Heightened Def Con from 2.21822e-006 to 2.21822e-006
Heightened Def Con from 2.21822e-006 ++++++++to 2.21824e-006
Heightened Def Con from 2.21824e-006 +to 2.21836e-006
Heightened Def Con from 2.21851e-006 to 2.21851e-006
Heightened Def Con from 2.21853e-006 ++to 2.21853e-006
Heightened Def Con from 2.21853e-006 +to 2.21853e-006
Heightened Def Con from 2.21853e-006 +to 2.21853e-006
Heightened Def Con from 2.21853e-006 to 2.21853e-006
Heightened Def Con from 2.21853e-006 to 2.21853e-006
Heightened Def Con from 2.21853e-006 to 2.21853e-006
Heightened Def Con from 2.21853e-006 to 2.21853e-006
Heightened Def Con from 2.21853e-006 ++++++to 2.21853e-006
Heightened Def Con from 2.21853e-006 to 2.21853e-006
Heightened Def Con from 2.21853e-006 to 2.21853e-006
Heightened Def Con from 2.21853e-006 to 2.21853e-006
Heightened Def Con from 2.21853e-006 to 2.21853e-006
Heightened Def Con from 2.21853e-006 +to 2.21853e-006
Heightened Def Con from 2.21853e-006 to 2.21853e-006
Heightened Def Con from 2.21853e-006 to 2.21853e-006
Heightened Def Con from 2.21853e-006 to 2.21853e-006
Heightened Def Con from 2.21853e-006 +to 2.21853e-006
Heightened Def Con from 2.21853e-006 to 2.21853e-006
Heightened Def Con from 2.21853e-006 +to 2.21853e-006
Heightened Def Con from 2.21853e-006 ++to 2.21853e-006
Heightened Def Con from 2.21853e-006 +++++to 2.21853e-006
Heightened Def Con from 2.21853e-006 to 2.21853e-006
Heightened Def Con from 2.21853e-006 +to 2.21853e-006
Heightened Def Con from 2.21853e-006 +to 2.21853e-006
Heightened Def Con from 2.21853e-006 to 2.21854e-006
Heightened Def Con from 2.21854e-006 +to 2.21854e-006
Heightened Def Con from 2.21854e-006 to 2.21854e-006
Heightened Def Con from 2.21854e-006 to 2.21854e-006
Heightened Def Con from 2.21854e-006 to 2.21854e-006
Heightened Def Con from 2.21854e-006 +to 2.21854e-006
Heightened Def Con from 2.21854e-006 +++to 2.21854e-006
Heightened Def Con from 2.21854e-006 to 2.21854e-006
Heightened Def Con from 2.21854e-006 to 2.21854e-006
Heightened Def Con from 2.21854e-006 to 2.21854e-006
Heightened Def Con from 2.21854e-006 to 2.21854e-006
Heightened Def Con from 2.21854e-006 +to 2.21854e-006
Heightened Def Con from 2.21854e-006 to 2.21854e-006
Heightened Def Con from 2.21854e-006 ++++to 2.21854e-006
Heightened Def Con from 2.21854e-006 to 2.21854e-006
Heightened Def Con from 2.21854e-006 +to 2.22054e-006
Heightened Def Con from 2.26281e-006 to 2.26294e-006
Heightened Def Con from 2.26294e-006 to 2.26494e-006
Heightened Def Con from 2.2755e-006 to 2.2775e-006
Heightened Def Con from 2.27964e-006 to 2.28076e-006
Heightened Def Con from 2.28332e-006 to 2.28444e-006
Heightened Def Con from 2.28544e-006 to 2.28557e-006
Heightened Def Con from 2.28557e-006 to 2.28558e-006
Heightened Def Con from 2.28558e-006 to 2.28571e-006
Heightened Def Con from 2.28571e-006 to 2.28596e-006
Heightened Def Con from 2.28625e-006 to 2.28626e-006
Heightened Def Con from 2.28626e-006 to 2.28628e-006
Heightened Def Con from 2.28632e-006 to 2.28646e-006
Heightened Def Con from 2.28651e-006 to 2.28676e-006
Heightened Def Con from 2.28676e-006 to 2.28876e-006
Heightened Def Con from 2.29022e-006 to 2.29135e-006
Heightened Def Con from 2.2921e-006 to 2.29235e-006
Heightened Def Con from 2.29238e-006 to 2.29239e-006
Heightened Def Con from 2.29239e-006 +++to 2.29351e-006
Heightened Def Con from 2.29351e-006 to 2.29551e-006
Heightened Def Con from 2.29643e-006 to 2.29643e-006
Heightened Def Con from 2.29643e-006 to 2.29643e-006
Heightened Def Con from 2.29643e-006 ++to 2.29655e-006
Heightened Def Con from 2.29655e-006 +to 2.29668e-006
Heightened Def Con from 2.29668e-006 to 2.29668e-006
Heightened Def Con from 2.29668e-006 to 2.29668e-006
Heightened Def Con from 2.29669e-006 to 2.29669e-006
Heightened Def Con from 2.29669e-006 to 2.29669e-006
Heightened Def Con from 2.29669e-006 to 2.29771e-006
Heightened Def Con from 2.29771e-006 to 2.29772e-006
Heightened Def Con from 2.29772e-006 +to 2.29772e-006
Heightened Def Con from 2.29772e-006 to 2.29773e-006
Heightened Def Con from 2.29773e-006 ++to 2.29798e-006
Heightened Def Con from 2.29801e-006 +to 2.29801e-006
Heightened Def Con from 2.29801e-006 to 2.29801e-006
Heightened Def Con from 2.29801e-006 +to 2.29801e-006
Heightened Def Con from 2.29801e-006 +to 2.29814e-006
Heightened Def Con from 2.29815e-006 to 2.29829e-006
Heightened Def Con from 2.29829e-006 to 2.29831e-006
Heightened Def Con from 2.29831e-006 to 2.29831e-006
Heightened Def Con from 2.29831e-006 to 2.29845e-006
Heightened Def Con from 2.29848e-006 to 2.29848e-006
Heightened Def Con from 2.29848e-006 to 2.29848e-006
Heightened Def Con from 2.29848e-006 ++to 2.29948e-006
Heightened Def Con from 2.30681e-006 to 2.30681e-006
Heightened Def Con from 2.30681e-006 to 2.30794e-006
Heightened Def Con from 2.308e-006 to 2.308e-006
Heightened Def Con from 2.308e-006 to 2.308e-006
Heightened Def Con from 2.308e-006 to 2.30902e-006
Heightened Def Con from 2.30911e-006 to 2.31011e-006
Heightened Def Con from 2.31011e-006 to 2.31013e-006
Heightened Def Con from 2.31013e-006 to 2.31213e-006
Heightened Def Con from 2.31213e-006 to 2.31213e-006
Heightened Def Con from 2.31213e-006 to 2.31326e-006
Heightened Def Con from 2.31413e-006 to 2.31414e-006
Heightened Def Con from 2.31414e-006 to 2.31515e-006
Heightened Def Con from 2.31518e-006 to 2.31718e-006
Heightened Def Con from 2.31718e-006 to 2.31719e-006
Heightened Def Con from 2.31719e-006 to 2.31744e-006
Heightened Def Con from 2.31746e-006 to 2.31858e-006
Heightened Def Con from 2.32111e-006 to 2.32311e-006
Heightened Def Con from 2.32686e-006 to 2.32799e-006
Heightened Def Con from 2.32836e-006 to 2.33036e-006
Heightened Def Con from 2.33058e-006 to 2.33158e-006
Heightened Def Con from 2.33209e-006 to 2.33222e-006
Heightened Def Con from 2.33222e-006 to 2.33247e-006
Heightened Def Con from 2.333e-006 to 2.33304e-006
Heightened Def Con from 2.33304e-006 to 2.33404e-006
Heightened Def Con from 2.33404e-006 to 2.33516e-006
Heightened Def Con from 2.33548e-006 to 2.33549e-006
Heightened Def Con from 2.33549e-006 to 2.33549e-006
Heightened Def Con from 2.33549e-006 to 2.33562e-006
Heightened Def Con from 2.33562e-006 to 2.33562e-006
Heightened Def Con from 2.33562e-006 to 2.33562e-006
Heightened Def Con from 2.33562e-006 to 2.33562e-006
Heightened Def Con from 2.33562e-006 to 2.33562e-006
Heightened Def Con from 2.33562e-006 to 2.33577e-006
Heightened Def Con from 2.33586e-006 to 2.33586e-006
Heightened Def Con from 2.33586e-006 to 2.33586e-006
Heightened Def Con from 2.33586e-006 to 2.33586e-006
Heightened Def Con from 2.33586e-006 to 2.33686e-006
Heightened Def Con from 2.33686e-006 ++to 2.33699e-006
Heightened Def Con from 2.33699e-006 +to 2.33699e-006
Heightened Def Con from 2.33699e-006 to 2.33701e-006
Heightened Def Con from 2.33701e-006 to 2.33701e-006
Heightened Def Con from 2.33701e-006 to 2.33702e-006
Heightened Def Con from 2.33704e-006 to 2.33716e-006
Heightened Def Con from 2.33716e-006 to 2.33717e-006
Heightened Def Con from 2.33718e-006 to 2.33718e-006
Heightened Def Con from 2.33718e-006 to 2.33718e-006
Heightened Def Con from 2.33718e-006 to 2.3373e-006
Heightened Def Con from 2.33732e-006 to 2.33844e-006
Heightened Def Con from 2.33844e-006 to 2.33845e-006
Heightened Def Con from 2.33845e-006 to 2.33857e-006
Heightened Def Con from 2.33857e-006 to 2.33857e-006
Heightened Def Con from 2.33857e-006 to 2.33958e-006
Heightened Def Con from 2.33958e-006 to 2.3397e-006
Heightened Def Con from 2.33972e-006 to 2.33984e-006
Heightened Def Con from 2.33984e-006 to 2.33984e-006
Heightened Def Con from 2.33984e-006 to 2.33985e-006
Heightened Def Con from 2.33986e-006 +to 2.33998e-006
Heightened Def Con from 2.33998e-006 to 2.34011e-006
Heightened Def Con from 2.34011e-006 to 2.34012e-006
Heightened Def Con from 2.34012e-006 +to 2.34112e-006
Heightened Def Con from 2.34116e-006 to 2.34228e-006
Heightened Def Con from 2.34232e-006 to 2.34332e-006
Heightened Def Con from 2.34332e-006 to 2.34346e-006
Heightened Def Con from 2.34349e-006 to 2.34549e-006
Heightened Def Con from 2.34574e-006 to 2.34599e-006
Heightened Def Con from 2.34599e-006 to 2.34599e-006
Heightened Def Con from 2.346e-006 to 2.34601e-006
Heightened Def Con from 2.34601e-006 to 2.34626e-006
Heightened Def Con from 2.34706e-006 to 2.34906e-006
Heightened Def Con from 2.34906e-006 to 2.35006e-006
Heightened Def Con from 2.35006e-006 to 2.35106e-006
Heightened Def Con from 2.35107e-006 +to 2.35219e-006
Heightened Def Con from 2.35254e-006 to 2.35254e-006
Heightened Def Con from 2.35254e-006 to 2.35354e-006
Heightened Def Con from 2.35354e-006 to 2.35554e-006

Date: Sun Sep 19 08:32:02 2021
Total elapsed time: 2.748 seconds.

tnom = 27
temp = 27
method = modified trap
totiter = 321444
traniter = 320078
tranpoints = 34278
accept = 9122
rejected = 27386
matrix size = 52
fillins = 204
solver = Normal
Matrix Compiler1: 15.14 KB object code size  2.4/1.3/[0.9]
Matrix Compiler2: 7.82 KB object code size  5.8/5.7/[1.8]

