Circuit: * C:\users\ashmita\Desktop\ASHMITA\APanda_Lib_LTSpice\chua_TL082.asc

Early termination of direct N-R iteration.
Direct Newton iteration failed to find .op point.  (Use ".option noopiter" to skip.)
Starting Gmin stepping
Gmin = 10
vernier = 0.5
vernier = 0.25
vernier = 0.125
Gmin = 5.5165
vernier = 0.0625
vernier = 0.03125
vernier = 0.015625
vernier = 0.0078125
Gmin = 5.49501
vernier = 0.00390625
vernier = 0.00195313
vernier = 0.000976563
vernier = 0.000488281
Gmin = 5.50104
Gmin = 0
Gmin stepping succeeded in finding the operating point.

Heightened Def Con from 4.16957e-007 to 4.18957e-007
Heightened Def Con from 4.192e-007 to 4.19217e-007
Heightened Def Con from 4.19221e-007 to 4.21221e-007
Heightened Def Con from 4.21465e-007 to 4.23465e-007
Heightened Def Con from 4.25906e-007 to 4.26031e-007
Heightened Def Con from 4.32795e-007 +to 4.32795e-007
Heightened Def Con from 4.32795e-007 to 4.34795e-007
Heightened Def Con from 4.36531e-007 +to 4.36531e-007
Heightened Def Con from 4.36531e-007 to 4.36562e-007
Heightened Def Con from 4.3657e-007 +to 4.3657e-007
Heightened Def Con from 4.3657e-007 to 4.3657e-007
Heightened Def Con from 4.3657e-007 +to 4.3657e-007
Heightened Def Con from 4.3657e-007 to 4.3657e-007
Heightened Def Con from 4.3657e-007 to 4.3657e-007
Heightened Def Con from 4.3657e-007 ++++to 4.3657e-007
Heightened Def Con from 4.3657e-007 +++to 4.3657e-007
Heightened Def Con from 4.36571e-007 to 4.36571e-007
Heightened Def Con from 4.36571e-007 to 4.36602e-007
Heightened Def Con from 4.36743e-007 to 4.3676e-007
Heightened Def Con from 4.36806e-007 to 4.36931e-007
Heightened Def Con from 4.37383e-007 +to 4.37383e-007
Heightened Def Con from 4.37383e-007 to 4.37385e-007
Heightened Def Con from 4.37389e-007 +to 4.37391e-007
Heightened Def Con from 4.38934e-007 to 4.38934e-007
Heightened Def Con from 4.38934e-007 to 4.38934e-007
Heightened Def Con from 4.38934e-007 +to 4.38934e-007
Heightened Def Con from 4.38934e-007 ++to 4.39934e-007
Heightened Def Con from 4.39934e-007 to 4.41934e-007
Heightened Def Con from 4.6666e-007 to 4.6691e-007
Heightened Def Con from 4.67223e-007 +to 4.67223e-007
Heightened Def Con from 4.67224e-007 to 4.68349e-007
Heightened Def Con from 4.68671e-007 to 4.68671e-007
Heightened Def Con from 4.68671e-007 to 4.68671e-007
Heightened Def Con from 4.68672e-007 to 4.68674e-007
Heightened Def Con from 4.68674e-007 to 4.70674e-007
Heightened Def Con from 4.7137e-007 to 4.7137e-007
Heightened Def Con from 4.7137e-007 to 4.71495e-007
Heightened Def Con from 4.71779e-007 +to 4.71904e-007
Heightened Def Con from 5.16245e-007 to 5.16371e-007
Heightened Def Con from 5.16401e-007 to 5.16651e-007
Heightened Def Con from 5.16902e-007 +to 5.16902e-007
Heightened Def Con from 5.16902e-007 to 5.16902e-007
Heightened Def Con from 5.16902e-007 +to 5.17027e-007
Heightened Def Con from 9.6012e-007 to 9.61135e-007
Heightened Def Con from 9.61179e-007 to 9.61196e-007
Heightened Def Con from 9.61201e-007 to 9.62216e-007
Heightened Def Con from 9.62239e-007 to 9.6227e-007
Heightened Def Con from 9.62464e-007 to 9.63479e-007
Heightened Def Con from 9.63657e-007 to 9.63688e-007
Heightened Def Con from 9.63721e-007 to 9.64736e-007
Heightened Def Con from 9.64886e-007 to 9.65902e-007
Heightened Def Con from 9.6595e-007 to 9.65981e-007
Heightened Def Con from 9.6602e-007 to 9.67036e-007
Heightened Def Con from 9.67082e-007 to 9.67113e-007
Heightened Def Con from 9.6791e-007 to 9.68925e-007
Heightened Def Con from 9.68967e-007 to 9.69983e-007
Heightened Def Con from 9.70005e-007 to 9.70036e-007
Heightened Def Con from 9.70214e-007 to 9.70245e-007
Heightened Def Con from 9.70287e-007 to 9.70318e-007
Heightened Def Con from 9.70337e-007 to 9.70368e-007
Heightened Def Con from 9.70383e-007 to 9.70414e-007
Heightened Def Con from 9.70608e-007 to 9.71624e-007
Heightened Def Con from 9.71652e-007 to 9.71683e-007
Heightened Def Con from 9.71715e-007 to 9.7273e-007
Heightened Def Con from 9.72751e-007 to 9.73767e-007
Heightened Def Con from 9.73779e-007 to 9.74794e-007
Heightened Def Con from 9.74795e-007 to 9.74826e-007
Heightened Def Con from 9.74989e-007 to 9.7502e-007
Heightened Def Con from 9.75055e-007 to 9.76071e-007
Heightened Def Con from 9.76236e-007 to 9.76267e-007
Heightened Def Con from 9.76312e-007 to 9.76343e-007
Heightened Def Con from 9.7635e-007 to 9.76381e-007
Heightened Def Con from 9.76433e-007 to 9.77449e-007
Heightened Def Con from 9.77477e-007 to 9.78492e-007
Heightened Def Con from 9.78636e-007 to 9.79651e-007
Heightened Def Con from 9.797e-007 to 9.80715e-007
Heightened Def Con from 9.80744e-007 to 9.82744e-007
Heightened Def Con from 9.8875e-007 to 9.88781e-007
Heightened Def Con from 9.88952e-007 to 9.88983e-007
Heightened Def Con from 9.88991e-007 to 9.89022e-007
Heightened Def Con from 9.89063e-007 to 9.90079e-007
Heightened Def Con from 9.90096e-007 to 9.90127e-007
Heightened Def Con from 9.90446e-007 to 9.90478e-007
Heightened Def Con from 9.90509e-007 to 9.91525e-007
Heightened Def Con from 9.91587e-007 to 9.91618e-007
Heightened Def Con from 9.9163e-007 to 9.9363e-007
Heightened Def Con from 9.9852e-007 to 9.9952e-007
Heightened Def Con from 9.99521e-007 +to 9.99521e-007
Heightened Def Con from 9.99521e-007 to 9.99552e-007
Heightened Def Con from 9.9959e-007 to 9.99621e-007
Heightened Def Con from 9.99656e-007 to 9.99674e-007
Heightened Def Con from 9.99682e-007 to 1.0007e-006
Heightened Def Con from 1.00073e-006 to 1.00175e-006
Heightened Def Con from 1.00178e-006 to 1.0028e-006
Heightened Def Con from 1.00281e-006 to 1.00284e-006
Heightened Def Con from 1.00302e-006 to 1.00404e-006
Heightened Def Con from 1.00408e-006 to 1.0051e-006
Heightened Def Con from 1.00524e-006 to 1.00624e-006
Heightened Def Con from 1.00624e-006 to 1.00627e-006
Heightened Def Con from 1.00631e-006 to 1.00634e-006
Heightened Def Con from 1.00638e-006 to 1.00641e-006
Heightened Def Con from 1.00646e-006 to 1.00649e-006
Heightened Def Con from 1.0065e-006 to 1.00752e-006
Heightened Def Con from 1.00765e-006 to 1.00965e-006
Heightened Def Con from 1.03821e-006 to 1.03835e-006
Heightened Def Con from 1.03836e-006 to 1.03936e-006
Heightened Def Con from 1.03938e-006 to 1.04038e-006
Heightened Def Con from 1.04039e-006 to 1.04042e-006
Heightened Def Con from 1.04046e-006 to 1.04048e-006
Heightened Def Con from 1.04049e-006 to 1.04249e-006
Heightened Def Con from 1.04292e-006 to 1.04393e-006
Heightened Def Con from 1.04394e-006 to 1.04495e-006
Heightened Def Con from 1.04495e-006 to 1.04695e-006
Heightened Def Con from 1.04903e-006 to 1.05005e-006
Heightened Def Con from 1.05006e-006 to 1.05108e-006
Heightened Def Con from 1.05108e-006 to 1.0521e-006
Heightened Def Con from 1.05211e-006 to 1.05214e-006
Heightened Def Con from 1.05216e-006 to 1.05416e-006
Heightened Def Con from 1.0543e-006 to 1.0553e-006
Heightened Def Con from 1.05532e-006 to 1.05633e-006
Heightened Def Con from 1.05635e-006 to 1.05649e-006
Heightened Def Con from 1.0565e-006 to 1.05653e-006
Heightened Def Con from 1.05659e-006 to 1.05859e-006
Heightened Def Con from 1.4176e-006 +to 1.4186e-006
Heightened Def Con from 1.4186e-006 to 1.4186e-006
Heightened Def Con from 1.4186e-006 to 1.41862e-006
Heightened Def Con from 1.41862e-006 to 1.41862e-006
Heightened Def Con from 1.41863e-006 to 1.41863e-006
Heightened Def Con from 1.41863e-006 to 1.41864e-006
Heightened Def Con from 1.41864e-006 to 1.41865e-006
Heightened Def Con from 1.41866e-006 to 1.41868e-006
Heightened Def Con from 1.41868e-006 to 1.41868e-006
Heightened Def Con from 1.41868e-006 to 1.41871e-006
Heightened Def Con from 1.41872e-006 to 1.41872e-006
Heightened Def Con from 1.41872e-006 to 1.41872e-006
Heightened Def Con from 1.41873e-006 to 1.41875e-006
Heightened Def Con from 1.41875e-006 +to 1.41875e-006
Heightened Def Con from 1.41875e-006 +++++++to 1.41875e-006
Heightened Def Con from 1.41875e-006 to 1.41876e-006
Heightened Def Con from 1.41876e-006 to 1.41879e-006
Heightened Def Con from 1.41879e-006 to 1.41883e-006
Heightened Def Con from 1.41883e-006 to 1.41886e-006
Heightened Def Con from 1.41887e-006 to 1.4189e-006
Heightened Def Con from 1.41891e-006 to 1.41894e-006
Heightened Def Con from 1.41895e-006 to 1.41898e-006
Heightened Def Con from 1.41899e-006 to 1.41902e-006
Heightened Def Con from 1.41902e-006 to 1.41905e-006
Heightened Def Con from 1.41906e-006 to 1.41909e-006
Heightened Def Con from 1.4191e-006 to 1.41913e-006
Heightened Def Con from 1.41914e-006 ++++++++++++++++++to 1.42014e-006
Heightened Def Con from 1.42014e-006 ++++++++++++++++++to 1.42015e-006
Heightened Def Con from 1.42015e-006 to 1.42016e-006
Heightened Def Con from 1.42016e-006 to 1.42019e-006
Heightened Def Con from 1.4202e-006 to 1.42023e-006
Heightened Def Con from 1.42024e-006 to 1.42027e-006
Heightened Def Con from 1.42028e-006 to 1.42028e-006
Heightened Def Con from 1.42028e-006 to 1.42029e-006
Heightened Def Con from 1.42031e-006 +++++++++++++to 1.42032e-006
Heightened Def Con from 1.42032e-006 to 1.42032e-006
Heightened Def Con from 1.42032e-006 ++++++++to 1.42033e-006
Heightened Def Con from 1.42033e-006 +to 1.42033e-006
Heightened Def Con from 1.42033e-006 to 1.42033e-006
Heightened Def Con from 1.42033e-006 to 1.42033e-006
Heightened Def Con from 1.42033e-006 to 1.42036e-006
Heightened Def Con from 1.42037e-006 to 1.4204e-006
Heightened Def Con from 1.42041e-006 +to 1.42141e-006
Heightened Def Con from 1.42141e-006 to 1.42141e-006
Heightened Def Con from 1.42141e-006 to 1.42143e-006
Heightened Def Con from 1.42144e-006 ++++++++++to 1.42144e-006
Heightened Def Con from 1.42144e-006 +to 1.42144e-006
Heightened Def Con from 1.42144e-006 to 1.42144e-006
Heightened Def Con from 1.42147e-006 to 1.42147e-006
Heightened Def Con from 1.42147e-006 to 1.42149e-006
Heightened Def Con from 1.42151e-006 to 1.42152e-006
Heightened Def Con from 1.42154e-006 to 1.42157e-006
Heightened Def Con from 1.42158e-006 to 1.42161e-006
Heightened Def Con from 1.42162e-006 to 1.42165e-006
Heightened Def Con from 1.42166e-006 to 1.42169e-006
Heightened Def Con from 1.42169e-006 to 1.4217e-006
Heightened Def Con from 1.4217e-006 to 1.42171e-006
Heightened Def Con from 1.42171e-006 to 1.42171e-006
Heightened Def Con from 1.42171e-006 to 1.42171e-006
Heightened Def Con from 1.42171e-006 to 1.42173e-006
Heightened Def Con from 1.42174e-006 to 1.42178e-006
Heightened Def Con from 1.42179e-006 to 1.42181e-006
Heightened Def Con from 1.42181e-006 to 1.42181e-006
Heightened Def Con from 1.42181e-006 to 1.42183e-006
Heightened Def Con from 1.42183e-006 to 1.42185e-006
Heightened Def Con from 1.42186e-006 to 1.42188e-006
Heightened Def Con from 1.42188e-006 to 1.42191e-006
Heightened Def Con from 1.42192e-006 to 1.42195e-006
Heightened Def Con from 1.42196e-006 to 1.42199e-006
Heightened Def Con from 1.422e-006 to 1.422e-006
Heightened Def Con from 1.422e-006 to 1.42201e-006
Heightened Def Con from 1.42203e-006 ++to 1.42203e-006
Heightened Def Con from 1.42203e-006 +to 1.42303e-006
Heightened Def Con from 1.42303e-006 ++to 1.42303e-006
Heightened Def Con from 1.42303e-006 to 1.42303e-006
Heightened Def Con from 1.42303e-006 to 1.42305e-006
Heightened Def Con from 1.42305e-006 to 1.42307e-006
Heightened Def Con from 1.42308e-006 to 1.42311e-006
Heightened Def Con from 1.42311e-006 to 1.42315e-006
Heightened Def Con from 1.42316e-006 to 1.42317e-006
Heightened Def Con from 1.42318e-006 to 1.42318e-006
Heightened Def Con from 1.42318e-006 to 1.4232e-006
Heightened Def Con from 1.4232e-006 to 1.4232e-006
Heightened Def Con from 1.42324e-006 to 1.42327e-006
Heightened Def Con from 1.42327e-006 to 1.42327e-006
Heightened Def Con from 1.42327e-006 to 1.42329e-006
Heightened Def Con from 1.42329e-006 to 1.42329e-006
Heightened Def Con from 1.4233e-006 ++++++++++++++++++to 1.4243e-006
Heightened Def Con from 1.4243e-006 +++++++++++++++to 1.4243e-006
Heightened Def Con from 1.4243e-006 +++++++++++++++to 1.42431e-006
Heightened Def Con from 1.42431e-006 +++++++++++++++to 1.42433e-006
Heightened Def Con from 1.42433e-006 +++++++++++++++to 1.42433e-006
Heightened Def Con from 1.42433e-006 +++++++++++++++to 1.42434e-006
Heightened Def Con from 1.42434e-006 +++++++++++++++to 1.42434e-006
Heightened Def Con from 1.42434e-006 +++++++++++++++to 1.42435e-006
Heightened Def Con from 1.42435e-006 +++++++++++++++to 1.42436e-006
Heightened Def Con from 1.42436e-006 ++++++++++++++++++to 1.42436e-006
Heightened Def Con from 1.42436e-006 to 1.42438e-006
Heightened Def Con from 1.42438e-006 to 1.42438e-006
Heightened Def Con from 1.42438e-006 to 1.42441e-006
Heightened Def Con from 1.42442e-006 to 1.42444e-006
Heightened Def Con from 1.42444e-006 to 1.42445e-006
Heightened Def Con from 1.42446e-006 to 1.42447e-006
Heightened Def Con from 1.42448e-006 to 1.42448e-006
Heightened Def Con from 1.42448e-006 to 1.4245e-006
Heightened Def Con from 1.4245e-006 ++to 1.42451e-006
Heightened Def Con from 1.42451e-006 ++++++++++++++to 1.42463e-006
Heightened Def Con from 1.42463e-006 to 1.42465e-006
Heightened Def Con from 1.42465e-006 to 1.42468e-006
Heightened Def Con from 1.42469e-006 to 1.42472e-006
Heightened Def Con from 1.42473e-006 to 1.42476e-006
Heightened Def Con from 1.42477e-006 to 1.4248e-006
Heightened Def Con from 1.4248e-006 to 1.42483e-006
Heightened Def Con from 1.42484e-006 to 1.42487e-006
Heightened Def Con from 1.42488e-006 to 1.42491e-006
Heightened Def Con from 1.42492e-006 ++++++to 1.42492e-006
Heightened Def Con from 1.42492e-006 to 1.42492e-006
Heightened Def Con from 1.42492e-006 to 1.42492e-006
Heightened Def Con from 1.42492e-006 to 1.42494e-006
Heightened Def Con from 1.42497e-006 to 1.42499e-006
Heightened Def Con from 1.42499e-006 to 1.42502e-006
Heightened Def Con from 1.42502e-006 to 1.42505e-006
Heightened Def Con from 1.42506e-006 to 1.42507e-006
Heightened Def Con from 1.42508e-006 to 1.4251e-006
Heightened Def Con from 1.4251e-006 to 1.42512e-006
Heightened Def Con from 1.42513e-006 ++++++++++++++++++to 1.42613e-006
Heightened Def Con from 1.42613e-006 +++++++++++++++to 1.42613e-006
Heightened Def Con from 1.42613e-006 +++++++++++++++to 1.42614e-006
Heightened Def Con from 1.42614e-006 +++++++++++++++to 1.42615e-006
Heightened Def Con from 1.42615e-006 +++++++++++++++to 1.42615e-006
Heightened Def Con from 1.42615e-006 ++++++++++++++++++to 1.42627e-006
Heightened Def Con from 1.42627e-006 to 1.42628e-006
Heightened Def Con from 1.42628e-006 to 1.42629e-006
Heightened Def Con from 1.42629e-006 to 1.42631e-006
Heightened Def Con from 1.42632e-006 to 1.42634e-006
Heightened Def Con from 1.42634e-006 to 1.42634e-006
Heightened Def Con from 1.42634e-006 to 1.42637e-006
Heightened Def Con from 1.42638e-006 to 1.42638e-006
Heightened Def Con from 1.42639e-006 ++to 1.42639e-006
Heightened Def Con from 1.42639e-006 +to 1.42639e-006
Heightened Def Con from 1.42639e-006 to 1.42641e-006
Heightened Def Con from 1.42641e-006 to 1.42644e-006
Heightened Def Con from 1.42645e-006 to 1.42648e-006
Heightened Def Con from 1.42649e-006 to 1.42652e-006
Heightened Def Con from 1.42653e-006 to 1.42656e-006
Heightened Def Con from 1.42657e-006 to 1.4266e-006
Heightened Def Con from 1.4266e-006 to 1.4266e-006
Heightened Def Con from 1.4266e-006 to 1.42662e-006
Heightened Def Con from 1.42664e-006 to 1.42665e-006
Heightened Def Con from 1.42669e-006 to 1.42672e-006
Heightened Def Con from 1.42672e-006 to 1.42675e-006
Heightened Def Con from 1.42675e-006 to 1.42677e-006
Heightened Def Con from 1.42678e-006 to 1.42678e-006
Heightened Def Con from 1.42678e-006 to 1.4268e-006
Heightened Def Con from 1.4268e-006 to 1.42681e-006
Heightened Def Con from 1.42683e-006 to 1.42684e-006
Heightened Def Con from 1.42684e-006 to 1.42684e-006
Heightened Def Con from 1.42685e-006 to 1.42687e-006
Heightened Def Con from 1.42687e-006 +++++++to 1.42687e-006
Heightened Def Con from 1.42687e-006 to 1.42687e-006
Heightened Def Con from 1.42687e-006 to 1.42687e-006
Heightened Def Con from 1.42688e-006 ++++++++++++++++++to 1.42788e-006
Heightened Def Con from 1.42788e-006 ++++++++++++++++++to 1.42888e-006
Heightened Def Con from 1.42888e-006 to 1.42888e-006
Heightened Def Con from 1.42888e-006 to 1.42892e-006
Heightened Def Con from 1.42892e-006 to 1.42892e-006
Heightened Def Con from 1.42892e-006 to 1.42893e-006
Heightened Def Con from 1.42893e-006 to 1.42893e-006
Heightened Def Con from 1.42893e-006 to 1.42894e-006
Heightened Def Con from 1.42894e-006 to 1.42896e-006
Heightened Def Con from 1.42896e-006 to 1.42898e-006
Heightened Def Con from 1.42898e-006 to 1.42898e-006
Heightened Def Con from 1.42898e-006 +to 1.42898e-006
Heightened Def Con from 1.42898e-006 to 1.429e-006
Heightened Def Con from 1.42901e-006 to 1.42901e-006
Heightened Def Con from 1.42901e-006 to 1.42902e-006
Heightened Def Con from 1.42902e-006 to 1.42902e-006
Heightened Def Con from 1.42902e-006 to 1.42904e-006
Heightened Def Con from 1.42904e-006 ++++++++++to 1.42904e-006
Heightened Def Con from 1.42904e-006 +++++to 1.42904e-006
Heightened Def Con from 1.42904e-006 to 1.42907e-006
Heightened Def Con from 1.42907e-006 to 1.42907e-006
Heightened Def Con from 1.42907e-006 to 1.42907e-006
Heightened Def Con from 1.42908e-006 to 1.4291e-006
Heightened Def Con from 1.42912e-006 to 1.42912e-006
Heightened Def Con from 1.42912e-006 to 1.42914e-006
Heightened Def Con from 1.42915e-006 to 1.42915e-006
Heightened Def Con from 1.42915e-006 to 1.42915e-006
Heightened Def Con from 1.42915e-006 to 1.42918e-006
Heightened Def Con from 1.42919e-006 to 1.42921e-006
Heightened Def Con from 1.42921e-006 to 1.42922e-006
Heightened Def Con from 1.42923e-006 to 1.42926e-006
Heightened Def Con from 1.42927e-006 to 1.4293e-006
Heightened Def Con from 1.42931e-006 to 1.42934e-006
Heightened Def Con from 1.42934e-006 to 1.42937e-006
Heightened Def Con from 1.42938e-006 to 1.42941e-006
Heightened Def Con from 1.42941e-006 to 1.42944e-006
Heightened Def Con from 1.42944e-006 to 1.42947e-006
Heightened Def Con from 1.42951e-006 +++to 1.43052e-006
Heightened Def Con from 1.43052e-006 +++++++++++++to 1.43052e-006
Heightened Def Con from 1.43052e-006 ++to 1.43052e-006
Heightened Def Con from 1.43052e-006 to 1.43054e-006
Heightened Def Con from 1.43055e-006 to 1.43058e-006
Heightened Def Con from 1.43058e-006 to 1.43059e-006
Heightened Def Con from 1.4306e-006 +to 1.4316e-006
Heightened Def Con from 1.4316e-006 to 1.4316e-006
Heightened Def Con from 1.4316e-006 to 1.43162e-006
Heightened Def Con from 1.43162e-006 to 1.43162e-006
Heightened Def Con from 1.43162e-006 to 1.43164e-006
Heightened Def Con from 1.43164e-006 to 1.43164e-006
Heightened Def Con from 1.43164e-006 to 1.43166e-006
Heightened Def Con from 1.43166e-006 to 1.43167e-006
Heightened Def Con from 1.43169e-006 to 1.4317e-006
Heightened Def Con from 1.4317e-006 +++to 1.43272e-006
Heightened Def Con from 1.43272e-006 +to 1.43372e-006
Heightened Def Con from 1.43375e-006 to 1.43375e-006
Heightened Def Con from 1.43375e-006 to 1.43375e-006
Heightened Def Con from 1.43375e-006 to 1.43377e-006
Heightened Def Con from 1.43377e-006 to 1.4338e-006
Heightened Def Con from 1.4338e-006 to 1.43383e-006
Heightened Def Con from 1.43383e-006 to 1.43384e-006
Heightened Def Con from 1.43385e-006 to 1.43385e-006
Heightened Def Con from 1.43386e-006 to 1.43388e-006
Heightened Def Con from 1.43389e-006 ++++++++++++++++++to 1.43489e-006
Heightened Def Con from 1.43489e-006 ++++++++++++++++++to 1.43501e-006
Heightened Def Con from 1.43501e-006 to 1.43502e-006
Heightened Def Con from 1.43502e-006 ++++++++++++++++++to 1.43602e-006
Heightened Def Con from 1.43602e-006 +++++++++++++++to 1.43602e-006
Heightened Def Con from 1.43602e-006 ++++++++++++++++++to 1.43614e-006
Heightened Def Con from 1.43614e-006 to 1.43614e-006
Heightened Def Con from 1.43614e-006 to 1.43616e-006
Heightened Def Con from 1.43629e-006 to 1.43632e-006
Heightened Def Con from 1.43632e-006 ++++++to 1.43633e-006
Heightened Def Con from 1.43633e-006 ++++++++++++++++++to 1.43733e-006
Heightened Def Con from 1.43733e-006 +++++++++++++++to 1.43733e-006
Heightened Def Con from 1.43733e-006 +++++++++++++++to 1.43733e-006
Heightened Def Con from 1.43733e-006 +++++++++++++++to 1.43733e-006
Heightened Def Con from 1.43733e-006 +++++++++++++++to 1.43733e-006
Heightened Def Con from 1.43733e-006 +++++++++++++++to 1.43733e-006
Heightened Def Con from 1.43733e-006 ++++++++++++++++to 1.43735e-006
Heightened Def Con from 1.43735e-006 ++++++++++++++++++to 1.43747e-006
Heightened Def Con from 1.43747e-006 to 1.43751e-006
Heightened Def Con from 1.43751e-006 to 1.43753e-006
Heightened Def Con from 1.43753e-006 to 1.43756e-006
Heightened Def Con from 1.43757e-006 to 1.43757e-006
Heightened Def Con from 1.43758e-006 to 1.43761e-006
Heightened Def Con from 1.43761e-006 to 1.43763e-006
Heightened Def Con from 1.43763e-006 to 1.43766e-006
Heightened Def Con from 1.43766e-006 to 1.43766e-006
Heightened Def Con from 1.43768e-006 +++++to 1.43768e-006
Heightened Def Con from 1.43768e-006 +to 1.43868e-006
Heightened Def Con from 1.43868e-006 to 1.43869e-006
Heightened Def Con from 1.4387e-006 to 1.4387e-006
Heightened Def Con from 1.4387e-006 to 1.4387e-006
Heightened Def Con from 1.4387e-006 to 1.43871e-006
Heightened Def Con from 1.43871e-006 to 1.43872e-006
Heightened Def Con from 1.43872e-006 to 1.43874e-006
Heightened Def Con from 1.43874e-006 to 1.43874e-006
Heightened Def Con from 1.43874e-006 to 1.43877e-006
Heightened Def Con from 1.43878e-006 to 1.43878e-006
Heightened Def Con from 1.43878e-006 to 1.43879e-006
Heightened Def Con from 1.43879e-006 +++to 1.43879e-006
Heightened Def Con from 1.43879e-006 +to 1.43979e-006
Heightened Def Con from 1.43981e-006 +to 1.44081e-006
Heightened Def Con from 1.51287e-006 to 1.51487e-006
Heightened Def Con from 1.53632e-006 to 1.53733e-006
Heightened Def Con from 1.53765e-006 to 1.53779e-006
Heightened Def Con from 1.53801e-006 to 1.54001e-006
Heightened Def Con from 1.60305e-006 to 1.60505e-006
Heightened Def Con from 1.65406e-006 to 1.6542e-006
Heightened Def Con from 1.65524e-006 to 1.65549e-006
Heightened Def Con from 1.6558e-006 to 1.6558e-006
Heightened Def Con from 1.6558e-006 to 1.6558e-006
Heightened Def Con from 1.6558e-006 to 1.6558e-006
Heightened Def Con from 1.6558e-006 to 1.6558e-006
Heightened Def Con from 1.6558e-006 +++++++++++++++++++++to 1.65592e-006
Heightened Def Con from 1.65592e-006 +++++++++++++++++++++to 1.65592e-006
Heightened Def Con from 1.65592e-006 +++++++++++++++++++++to 1.65594e-006
Heightened Def Con from 1.65594e-006 +++++++++++++++++++++to 1.65694e-006
Heightened Def Con from 1.65694e-006 +++++++++++++++++++++to 1.65694e-006
Heightened Def Con from 1.65694e-006 ++++++++++++++++++++++to 1.65907e-006
Heightened Def Con from 1.65907e-006 +++++++++++++++++++++to 1.65907e-006
Heightened Def Con from 1.65907e-006 +++++++++++++++++++++to 1.65907e-006
Heightened Def Con from 1.65907e-006 +++++++++++++++++++++to 1.65907e-006
Heightened Def Con from 1.65907e-006 +++++++++++++++++++++to 1.65907e-006
Heightened Def Con from 1.65907e-006 +++++++++++++++++++++to 1.65919e-006
Heightened Def Con from 1.65919e-006 +++++++++++++++++++++to 1.65921e-006
Heightened Def Con from 1.65921e-006 +++++++++++++++++++++to 1.65921e-006
Heightened Def Con from 1.65921e-006 +++++++++++++++++++++to 1.65921e-006
Heightened Def Con from 1.65921e-006 +++++++++++++++++++++to 1.65933e-006
Heightened Def Con from 1.65933e-006 ++++++++++++++++++++++to 1.66046e-006
Heightened Def Con from 1.66046e-006 ++++++++++++++++++++++to 1.66058e-006
Heightened Def Con from 1.66058e-006 +++++++++++++++++++++to 1.66258e-006
Heightened Def Con from 1.66258e-006 +++++++++++++++++++++to 1.6626e-006
Heightened Def Con from 1.6626e-006 +++++++++++++++++++++to 1.6626e-006
Heightened Def Con from 1.6626e-006 +++++++++++++++++++++to 1.66272e-006
Heightened Def Con from 1.66272e-006 +++++++++++++++++++++to 1.66272e-006
Heightened Def Con from 1.66272e-006 +++++++++++++++++++++to 1.66272e-006
Heightened Def Con from 1.66272e-006 +++++++++++++++++++++to 1.66372e-006
Heightened Def Con from 1.66372e-006 +++++++++++++++++++++to 1.66472e-006
Heightened Def Con from 1.66472e-006 +++++++++++++++++++++to 1.66472e-006
Heightened Def Con from 1.66472e-006 +++++++++++++++++++++to 1.66472e-006
Heightened Def Con from 1.66472e-006 +++++++++++++++++++++to 1.66485e-006
Heightened Def Con from 1.66485e-006 +++++++++++++++++++++to 1.66485e-006
Heightened Def Con from 1.66485e-006 +++++++++++++++++++++to 1.66485e-006
Heightened Def Con from 1.66485e-006 ++++++++++++++++++++++to 1.66698e-006
Heightened Def Con from 1.66701e-006 to 1.66903e-006
Heightened Def Con from 1.66903e-006 to 1.67016e-006
Heightened Def Con from 1.67213e-006 to 1.67216e-006
Heightened Def Con from 1.67216e-006 to 1.67228e-006
Heightened Def Con from 1.67228e-006 to 1.67228e-006
Heightened Def Con from 1.67228e-006 to 1.67241e-006
Heightened Def Con from 1.67241e-006 to 1.67241e-006
Heightened Def Con from 1.67241e-006 to 1.67243e-006
Heightened Def Con from 1.67243e-006 to 1.67345e-006
Heightened Def Con from 1.67345e-006 ++++++++++++++++++++to 1.67345e-006
Heightened Def Con from 1.67345e-006 to 1.67357e-006
Heightened Def Con from 1.67357e-006 to 1.67557e-006
Heightened Def Con from 1.69757e-006 to 1.69957e-006
Heightened Def Con from 1.69984e-006 to 1.70086e-006
Heightened Def Con from 1.70104e-006 to 1.70104e-006
Heightened Def Con from 1.70104e-006 to 1.70304e-006
Heightened Def Con from 1.73311e-006 to 1.73325e-006
Heightened Def Con from 1.73347e-006 to 1.73349e-006
Heightened Def Con from 1.73349e-006 to 1.73449e-006
Heightened Def Con from 1.73451e-006 to 1.73463e-006
Heightened Def Con from 1.73463e-006 to 1.73488e-006
Heightened Def Con from 1.73489e-006 to 1.73502e-006
Heightened Def Con from 1.73502e-006 to 1.73502e-006
Heightened Def Con from 1.73502e-006 to 1.73527e-006
Heightened Def Con from 1.73537e-006 to 1.73537e-006
Heightened Def Con from 1.73537e-006 to 1.73537e-006
Heightened Def Con from 1.73538e-006 to 1.7354e-006
Heightened Def Con from 1.7354e-006 to 1.7354e-006
Heightened Def Con from 1.7354e-006 to 1.7354e-006
Heightened Def Con from 1.7354e-006 to 1.7354e-006
Heightened Def Con from 1.7354e-006 to 1.7354e-006
Heightened Def Con from 1.7354e-006 to 1.73543e-006
Heightened Def Con from 1.73547e-006 ++to 1.73659e-006
Heightened Def Con from 1.73659e-006 ++to 1.73672e-006
Heightened Def Con from 1.73672e-006 to 1.73673e-006
Heightened Def Con from 1.73673e-006 to 1.73673e-006
Heightened Def Con from 1.73673e-006 to 1.73673e-006
Heightened Def Con from 1.73673e-006 to 1.73775e-006
Heightened Def Con from 1.73778e-006 to 1.73778e-006
Heightened Def Con from 1.73778e-006 +to 1.73803e-006
Heightened Def Con from 1.73803e-006 +to 1.73803e-006
Heightened Def Con from 1.73803e-006 +to 1.74003e-006
Heightened Def Con from 1.74003e-006 to 1.74003e-006
Heightened Def Con from 1.74003e-006 +to 1.74003e-006
Heightened Def Con from 1.74003e-006 +to 1.74103e-006
Heightened Def Con from 1.74103e-006 to 1.74103e-006
Heightened Def Con from 1.74103e-006 +to 1.74116e-006
Heightened Def Con from 1.74116e-006 +to 1.74116e-006
Heightened Def Con from 1.74116e-006 to 1.74116e-006
Heightened Def Con from 1.74116e-006 to 1.74116e-006
Heightened Def Con from 1.74116e-006 to 1.74216e-006
Heightened Def Con from 1.74216e-006 to 1.74216e-006
Heightened Def Con from 1.74216e-006 to 1.74216e-006
Heightened Def Con from 1.74216e-006 to 1.74216e-006
Heightened Def Con from 1.74216e-006 to 1.74216e-006
Heightened Def Con from 1.74216e-006 to 1.74216e-006
Heightened Def Con from 1.74216e-006 to 1.74216e-006
Heightened Def Con from 1.74216e-006 to 1.74317e-006
Heightened Def Con from 1.74317e-006 to 1.74317e-006
Heightened Def Con from 1.74317e-006 to 1.74317e-006
Heightened Def Con from 1.74317e-006 to 1.74317e-006
Heightened Def Con from 1.74317e-006 to 1.74317e-006
Heightened Def Con from 1.74317e-006 to 1.74317e-006
Heightened Def Con from 1.74317e-006 to 1.74317e-006
Heightened Def Con from 1.74317e-006 +to 1.74317e-006
Heightened Def Con from 1.74318e-006 to 1.74318e-006
Heightened Def Con from 1.74318e-006 to 1.74318e-006
Heightened Def Con from 1.74318e-006 +to 1.74418e-006
Heightened Def Con from 1.75501e-006 to 1.75701e-006
Heightened Def Con from 1.75733e-006 to 1.75833e-006
Heightened Def Con from 1.75833e-006 to 1.76033e-006
Heightened Def Con from 1.76119e-006 to 1.76144e-006
Heightened Def Con from 1.76147e-006 to 1.76347e-006
Heightened Def Con from 1.76447e-006 to 1.76472e-006
Heightened Def Con from 1.76768e-006 to 1.76793e-006
Heightened Def Con from 1.77449e-006 to 1.77453e-006
Heightened Def Con from 1.77459e-006 to 1.77473e-006
Heightened Def Con from 1.77523e-006 to 1.77526e-006
Heightened Def Con from 1.77532e-006 to 1.77532e-006
Heightened Def Con from 1.77532e-006 to 1.77532e-006
Heightened Def Con from 1.77532e-006 to 1.77532e-006
Heightened Def Con from 1.77532e-006 to 1.77532e-006
Heightened Def Con from 1.77532e-006 to 1.77532e-006
Heightened Def Con from 1.77532e-006 to 1.77532e-006
Heightened Def Con from 1.77532e-006 to 1.77532e-006
Heightened Def Con from 1.77532e-006 to 1.77532e-006
Heightened Def Con from 1.77532e-006 to 1.77532e-006
Heightened Def Con from 1.77532e-006 to 1.77532e-006
Heightened Def Con from 1.77532e-006 ++to 1.77532e-006
Heightened Def Con from 1.77532e-006 ++++++++++++++++++++to 1.77545e-006
Heightened Def Con from 1.77545e-006 ++++++++++++++++++++to 1.77546e-006
Heightened Def Con from 1.77546e-006 ++++++++++++++++++++to 1.77548e-006
Heightened Def Con from 1.77548e-006 ++++++++++++++++++++to 1.77548e-006
Heightened Def Con from 1.77548e-006 ++++++++++++++++++++to 1.77648e-006
Heightened Def Con from 1.77648e-006 ++++++++++++++++++++to 1.7766e-006
Heightened Def Con from 1.7766e-006 ++++++++++++++++++++to 1.7786e-006
Heightened Def Con from 1.7786e-006 ++++++++++++++++++++to 1.77962e-006
Heightened Def Con from 1.77962e-006 ++++++++++++++++++++to 1.77963e-006
Heightened Def Con from 1.77963e-006 ++++++++++++++++++++to 1.77965e-006
Heightened Def Con from 1.77965e-006 ++++++++++++++++++++to 1.77977e-006
Heightened Def Con from 1.77977e-006 ++++++++++++++++++++to 1.77979e-006
Heightened Def Con from 1.77979e-006 ++++++++++++++++++++to 1.77992e-006
Heightened Def Con from 1.77992e-006 ++++++++++++++++++++to 1.78004e-006
Heightened Def Con from 1.78004e-006 ++++++++++++++++++++to 1.78017e-006
Heightened Def Con from 1.78017e-006 ++++++++++++++++++++to 1.78217e-006
Heightened Def Con from 1.78217e-006 ++++++++++++++++++++to 1.78217e-006
Heightened Def Con from 1.78217e-006 ++++++++++++++++++++to 1.78229e-006
Heightened Def Con from 1.78229e-006 ++++++++++++++++++++to 1.78242e-006
Heightened Def Con from 1.78242e-006 ++++++++++++++++++++to 1.78342e-006
Heightened Def Con from 1.78342e-006 ++++++++++++++++++++to 1.78442e-006
Heightened Def Con from 1.78442e-006 ++++++++++++++++++++to 1.78542e-006
Heightened Def Con from 1.78621e-006 to 1.78634e-006
Heightened Def Con from 1.78634e-006 to 1.78634e-006
Heightened Def Con from 1.78634e-006 to 1.78636e-006
Heightened Def Con from 1.78636e-006 to 1.78648e-006
Heightened Def Con from 1.78648e-006 +to 1.78649e-006
Heightened Def Con from 1.78649e-006 to 1.78649e-006
Heightened Def Con from 1.78649e-006 +to 1.78749e-006
Heightened Def Con from 1.78764e-006 to 1.78964e-006
Heightened Def Con from 1.78988e-006 to 1.79088e-006
Heightened Def Con from 1.79158e-006 to 1.79172e-006
Heightened Def Con from 1.79176e-006 to 1.79176e-006
Heightened Def Con from 1.79176e-006 to 1.79176e-006
Heightened Def Con from 1.79176e-006 to 1.79176e-006
Heightened Def Con from 1.79176e-006 to 1.79189e-006
Heightened Def Con from 1.79189e-006 to 1.79214e-006
Heightened Def Con from 1.79217e-006 to 1.7923e-006
Heightened Def Con from 1.7923e-006 to 1.7923e-006
Heightened Def Con from 1.7923e-006 to 1.79231e-006
Heightened Def Con from 1.79231e-006 to 1.79231e-006
Heightened Def Con from 1.79232e-006 to 1.79232e-006
Heightened Def Con from 1.79233e-006 to 1.79247e-006
Heightened Def Con from 1.79247e-006 to 1.79247e-006
Heightened Def Con from 1.79247e-006 to 1.7926e-006
Heightened Def Con from 1.7926e-006 to 1.79261e-006
Heightened Def Con from 1.79261e-006 to 1.79262e-006
Heightened Def Con from 1.79262e-006 to 1.79262e-006
Heightened Def Con from 1.79262e-006 to 1.79262e-006
Heightened Def Con from 1.79262e-006 to 1.79262e-006
Heightened Def Con from 1.79262e-006 to 1.79287e-006
Heightened Def Con from 1.7929e-006 to 1.79302e-006
Heightened Def Con from 1.79302e-006 to 1.79303e-006
Heightened Def Con from 1.79303e-006 ++++to 1.79315e-006
Heightened Def Con from 1.79315e-006 +++++++to 1.79415e-006
Heightened Def Con from 1.79415e-006 +++++++to 1.79515e-006
Heightened Def Con from 1.79515e-006 +++++++to 1.79528e-006
Heightened Def Con from 1.79528e-006 +++++++to 1.79628e-006
Heightened Def Con from 1.79628e-006 to 1.79728e-006
Heightened Def Con from 1.7973e-006 to 1.7973e-006
Heightened Def Con from 1.7973e-006 to 1.7973e-006
Heightened Def Con from 1.7973e-006 ++++to 1.79743e-006
Heightened Def Con from 1.79743e-006 to 1.79743e-006
Heightened Def Con from 1.79743e-006 to 1.79743e-006
Heightened Def Con from 1.79743e-006 +to 1.79743e-006
Heightened Def Con from 1.79743e-006 +to 1.79744e-006
Heightened Def Con from 1.79744e-006 +to 1.79744e-006
Heightened Def Con from 1.79744e-006 +to 1.79744e-006
Heightened Def Con from 1.79744e-006 +++++++to 1.79757e-006
Heightened Def Con from 1.79757e-006 +++++++to 1.79758e-006
Heightened Def Con from 1.79758e-006 +++to 1.79858e-006
Heightened Def Con from 1.79858e-006 to 1.79858e-006
Heightened Def Con from 1.79858e-006 to 1.80058e-006
Heightened Def Con from 1.80062e-006 +++++++to 1.80162e-006
Heightened Def Con from 1.80162e-006 +++++++to 1.80174e-006
Heightened Def Con from 1.80174e-006 to 1.80176e-006
Heightened Def Con from 1.80176e-006 +++++++to 1.80276e-006
Heightened Def Con from 1.80276e-006 to 1.80276e-006
Heightened Def Con from 1.80276e-006 to 1.80376e-006
Heightened Def Con from 1.80376e-006 +to 1.80476e-006
Heightened Def Con from 1.80501e-006 to 1.80613e-006
Heightened Def Con from 1.80625e-006 to 1.80725e-006
Heightened Def Con from 1.80725e-006 to 1.80925e-006
Heightened Def Con from 1.81e-006 to 1.81012e-006
Heightened Def Con from 1.81012e-006 to 1.81112e-006
Heightened Def Con from 1.81125e-006 to 1.81125e-006
Heightened Def Con from 1.81125e-006 to 1.8115e-006
Heightened Def Con from 1.81154e-006 to 1.81154e-006
Heightened Def Con from 1.81154e-006 to 1.81179e-006
Heightened Def Con from 1.81204e-006 to 1.81206e-006
Heightened Def Con from 1.81206e-006 to 1.8122e-006
Heightened Def Con from 1.81229e-006 to 1.81329e-006
Heightened Def Con from 1.81329e-006 to 1.81431e-006
Heightened Def Con from 1.81431e-006 to 1.81543e-006
Heightened Def Con from 1.81575e-006 to 1.816e-006
Heightened Def Con from 1.81622e-006 to 1.81822e-006
Heightened Def Con from 1.82422e-006 to 1.82622e-006
Heightened Def Con from 1.84023e-006 to 1.84026e-006
Heightened Def Con from 1.84029e-006 to 1.84229e-006
Heightened Def Con from 1.84259e-006 to 1.84372e-006
Heightened Def Con from 1.84377e-006 to 1.8438e-006
Heightened Def Con from 1.84519e-006 to 1.84632e-006
Heightened Def Con from 1.84635e-006 to 1.84835e-006
Heightened Def Con from 1.85234e-006 to 1.85434e-006
Heightened Def Con from 1.85466e-006 to 1.85469e-006
Heightened Def Con from 1.85494e-006 to 1.85496e-006
Heightened Def Con from 1.85496e-006 to 1.85496e-006
Heightened Def Con from 1.85496e-006 to 1.85496e-006
Heightened Def Con from 1.85497e-006 to 1.85498e-006
Heightened Def Con from 1.855e-006 to 1.855e-006
Heightened Def Con from 1.855e-006 to 1.855e-006
Heightened Def Con from 1.855e-006 to 1.855e-006
Heightened Def Con from 1.855e-006 to 1.855e-006
Heightened Def Con from 1.855e-006 +to 1.855e-006
Heightened Def Con from 1.855e-006 ++++++++++++++++++to 1.856e-006
Heightened Def Con from 1.856e-006 ++++++++++++++++++to 1.856e-006
Heightened Def Con from 1.856e-006 ++++++++++++++++++to 1.85613e-006
Heightened Def Con from 1.85613e-006 ++++++++++++++++++to 1.85625e-006
Heightened Def Con from 1.85625e-006 ++++++++++++++++++to 1.85638e-006
Heightened Def Con from 1.85638e-006 ++++++++++++++++++to 1.85639e-006
Heightened Def Con from 1.85639e-006 ++++++++++++++++++to 1.85739e-006
Heightened Def Con from 1.85739e-006 ++++++++++++++++++to 1.85839e-006
Heightened Def Con from 1.85839e-006 ++++++++++++++++++to 1.85852e-006
Heightened Def Con from 1.85852e-006 ++++++++++++++++++to 1.85864e-006
Heightened Def Con from 1.85864e-006 ++++++++++++++++++to 1.85964e-006
Heightened Def Con from 1.85964e-006 ++++++++++++++++++to 1.86064e-006
Heightened Def Con from 1.86064e-006 ++++++++++++++++++to 1.86066e-006
Heightened Def Con from 1.86066e-006 ++++++++++++++++++to 1.86166e-006
Heightened Def Con from 1.86166e-006 ++++++++++++++++++to 1.86266e-006
Heightened Def Con from 1.86266e-006 ++++++++++++++++++to 1.86268e-006
Heightened Def Con from 1.86268e-006 ++++++++++++++++++to 1.86268e-006
Heightened Def Con from 1.86268e-006 ++++++++++++++++++to 1.86368e-006
Heightened Def Con from 1.86368e-006 ++++++++++++++++++to 1.86468e-006
Heightened Def Con from 2.09142e-006 to 2.09342e-006
Heightened Def Con from 2.0944e-006 to 2.09553e-006
Heightened Def Con from 2.09553e-006 to 2.09578e-006
Heightened Def Con from 2.09579e-006 to 2.09579e-006
Heightened Def Con from 2.09579e-006 to 2.09579e-006
Heightened Def Con from 2.09579e-006 to 2.0958e-006
Heightened Def Con from 2.0958e-006 to 2.09581e-006
Heightened Def Con from 2.09582e-006 to 2.09585e-006
Heightened Def Con from 2.09589e-006 to 2.09589e-006
Heightened Def Con from 2.09589e-006 to 2.09592e-006
Heightened Def Con from 2.09592e-006 to 2.09605e-006
Heightened Def Con from 2.09605e-006 to 2.09605e-006
Heightened Def Con from 2.09605e-006 to 2.09605e-006
Heightened Def Con from 2.09605e-006 +to 2.09605e-006
Heightened Def Con from 2.09605e-006 to 2.09605e-006
Heightened Def Con from 2.09605e-006 to 2.09605e-006
Heightened Def Con from 2.09605e-006 to 2.09605e-006
Heightened Def Con from 2.09605e-006 to 2.09605e-006
Heightened Def Con from 2.09605e-006 to 2.09605e-006
Heightened Def Con from 2.09605e-006 to 2.09605e-006
Heightened Def Con from 2.09605e-006 to 2.09607e-006
Heightened Def Con from 2.0961e-006 ++to 2.0961e-006
Heightened Def Con from 2.0961e-006 to 2.09611e-006
Heightened Def Con from 2.09611e-006 +++++++to 2.09611e-006
Heightened Def Con from 2.09611e-006 ++to 2.09611e-006
Heightened Def Con from 2.09611e-006 ++to 2.09611e-006
Heightened Def Con from 2.09611e-006 ++to 2.09611e-006
Heightened Def Con from 2.09611e-006 to 2.09611e-006
Heightened Def Con from 2.09611e-006 ++++to 2.09611e-006
Heightened Def Con from 2.09611e-006 ++to 2.09611e-006
Heightened Def Con from 2.09611e-006 +to 2.09611e-006
Heightened Def Con from 2.09611e-006 ++++++++++to 2.09611e-006
Heightened Def Con from 2.09611e-006 to 2.09611e-006
Heightened Def Con from 2.09611e-006 +to 2.09611e-006
Heightened Def Con from 2.09611e-006 ++to 2.09611e-006
Heightened Def Con from 2.09611e-006 to 2.09611e-006
Heightened Def Con from 2.09611e-006 to 2.09611e-006
Heightened Def Con from 2.09611e-006 to 2.09611e-006
Heightened Def Con from 2.09611e-006 ++to 2.09611e-006
Heightened Def Con from 2.09611e-006 to 2.09611e-006
Heightened Def Con from 2.09611e-006 +to 2.09611e-006
Heightened Def Con from 2.09611e-006 +to 2.09611e-006
Heightened Def Con from 2.09611e-006 to 2.09611e-006
Heightened Def Con from 2.09611e-006 to 2.09612e-006
Heightened Def Con from 2.09612e-006 to 2.09612e-006
Heightened Def Con from 2.09612e-006 to 2.09613e-006
Heightened Def Con from 2.09613e-006 +++++++++++to 2.09613e-006
Heightened Def Con from 2.09613e-006 +++++++++++to 2.09626e-006
Heightened Def Con from 2.09626e-006 +++++++++++to 2.09638e-006
Heightened Def Con from 2.09638e-006 ++++++++++to 2.09638e-006
Heightened Def Con from 2.09638e-006 ++to 2.09638e-006
Heightened Def Con from 2.09638e-006 ++++++++to 2.09638e-006
Heightened Def Con from 2.09638e-006 ++to 2.09738e-006
Heightened Def Con from 2.09742e-006 +to 2.09742e-006
Heightened Def Con from 2.09742e-006 to 2.09742e-006
Heightened Def Con from 2.09742e-006 to 2.09855e-006
Heightened Def Con from 2.09855e-006 to 2.09869e-006
Heightened Def Con from 2.09869e-006 to 2.09882e-006
Heightened Def Con from 2.09882e-006 to 2.09895e-006
Heightened Def Con from 2.09895e-006 to 2.0992e-006
Heightened Def Con from 2.09921e-006 +to 2.09921e-006
Heightened Def Con from 2.09921e-006 to 2.09921e-006
Heightened Def Con from 2.09921e-006 to 2.09921e-006
Heightened Def Con from 2.09921e-006 to 2.09922e-006
Heightened Def Con from 2.09922e-006 +to 2.09922e-006
Heightened Def Con from 2.09922e-006 to 2.09923e-006
Heightened Def Con from 2.09923e-006 to 2.09923e-006
Heightened Def Con from 2.09923e-006 to 2.09923e-006
Heightened Def Con from 2.09923e-006 to 2.09923e-006
Heightened Def Con from 2.09923e-006 +++to 2.09926e-006
Heightened Def Con from 2.09926e-006 to 2.09928e-006
Heightened Def Con from 2.09928e-006 to 2.10041e-006
Heightened Def Con from 2.10041e-006 to 2.10141e-006
Heightened Def Con from 2.10141e-006 +to 2.10154e-006
Heightened Def Con from 2.10154e-006 to 2.10157e-006
Heightened Def Con from 2.10158e-006 to 2.10158e-006
Heightened Def Con from 2.10158e-006 to 2.1016e-006
Heightened Def Con from 2.1016e-006 +to 2.1016e-006
Heightened Def Con from 2.1016e-006 to 2.1016e-006
Heightened Def Con from 2.1016e-006 to 2.1016e-006
Heightened Def Con from 2.1016e-006 to 2.10162e-006
Heightened Def Con from 2.10162e-006 to 2.10174e-006
Heightened Def Con from 2.10174e-006 to 2.10176e-006
Heightened Def Con from 2.10176e-006 ++to 2.10189e-006
Heightened Def Con from 2.10189e-006 +to 2.1019e-006
Heightened Def Con from 2.1019e-006 to 2.1019e-006
Heightened Def Con from 2.1019e-006 to 2.1019e-006
Heightened Def Con from 2.1019e-006 to 2.10191e-006
Heightened Def Con from 2.10191e-006 to 2.10191e-006
Heightened Def Con from 2.10191e-006 to 2.10191e-006
Heightened Def Con from 2.10191e-006 to 2.10191e-006
Heightened Def Con from 2.10191e-006 to 2.10191e-006
Heightened Def Con from 2.10191e-006 to 2.10191e-006
Heightened Def Con from 2.10191e-006 +to 2.10192e-006
Heightened Def Con from 2.10192e-006 +to 2.10192e-006
Heightened Def Con from 2.10192e-006 +to 2.10205e-006
Heightened Def Con from 2.10205e-006 +to 2.10205e-006
Heightened Def Con from 2.10205e-006 to 2.10205e-006
Heightened Def Con from 2.10205e-006 ++to 2.10206e-006
Heightened Def Con from 2.10207e-006 to 2.10207e-006
Heightened Def Con from 2.10207e-006 +to 2.10208e-006
Heightened Def Con from 2.10208e-006 to 2.10208e-006
Heightened Def Con from 2.10208e-006 to 2.1021e-006
Heightened Def Con from 2.1021e-006 +to 2.1021e-006
Heightened Def Con from 2.1021e-006 to 2.1021e-006
Heightened Def Con from 2.1021e-006 to 2.1021e-006
Heightened Def Con from 2.1021e-006 to 2.1021e-006
Heightened Def Con from 2.1021e-006 +to 2.1021e-006
Heightened Def Con from 2.1021e-006 +to 2.10223e-006
Heightened Def Con from 2.10226e-006 +to 2.10226e-006
Heightened Def Con from 2.10226e-006 ++to 2.10227e-006
Heightened Def Con from 2.10227e-006 to 2.10227e-006
Heightened Def Con from 2.10227e-006 ++to 2.10228e-006
Heightened Def Con from 2.10228e-006 to 2.10228e-006
Heightened Def Con from 2.10228e-006 to 2.10228e-006
Heightened Def Con from 2.10228e-006 ++to 2.10228e-006
Heightened Def Con from 2.10228e-006 ++to 2.10228e-006
Heightened Def Con from 2.10228e-006 +to 2.10228e-006
Heightened Def Con from 2.10228e-006 ++to 2.10228e-006
Heightened Def Con from 2.10228e-006 ++to 2.10228e-006
Heightened Def Con from 2.10228e-006 to 2.10228e-006
Heightened Def Con from 2.10228e-006 to 2.10228e-006
Heightened Def Con from 2.10228e-006 to 2.10228e-006
Heightened Def Con from 2.10228e-006 +to 2.10228e-006
Heightened Def Con from 2.10228e-006 ++to 2.10228e-006
Heightened Def Con from 2.10228e-006 ++to 2.10228e-006
Heightened Def Con from 2.10228e-006 to 2.10228e-006
Heightened Def Con from 2.10228e-006 ++to 2.10228e-006
Heightened Def Con from 2.10228e-006 to 2.10228e-006
Heightened Def Con from 2.10228e-006 ++to 2.10228e-006
Heightened Def Con from 2.10228e-006 +to 2.10228e-006
Heightened Def Con from 2.10228e-006 +to 2.10228e-006
Heightened Def Con from 2.10228e-006 ++to 2.10228e-006
Heightened Def Con from 2.10228e-006 ++++++++to 2.10228e-006
Heightened Def Con from 2.10228e-006 ++++++++to 2.10228e-006
Heightened Def Con from 2.10228e-006 ++++++++to 2.10228e-006
Heightened Def Con from 2.10228e-006 +++++++++to 2.10228e-006
Heightened Def Con from 2.10228e-006 +++++++++to 2.10228e-006
Heightened Def Con from 2.10228e-006 +++++++++to 2.10228e-006
Heightened Def Con from 2.10228e-006 +++++++++to 2.10228e-006
Heightened Def Con from 2.10228e-006 ++++++++++to 2.10228e-006
Heightened Def Con from 2.10228e-006 ++++++++++to 2.10228e-006
Heightened Def Con from 2.10228e-006 ++++++++++to 2.10228e-006
Heightened Def Con from 2.10228e-006 ++++++++++to 2.10228e-006
Heightened Def Con from 2.10228e-006 ++++++++++to 2.10228e-006
Heightened Def Con from 2.10228e-006 ++++++++++to 2.10228e-006
Heightened Def Con from 2.10228e-006 ++++++++++++to 2.10229e-006
Heightened Def Con from 2.10229e-006 ++++++++++++to 2.1023e-006
Heightened Def Con from 2.1023e-006 ++++++++++++to 2.1033e-006
Heightened Def Con from 2.1033e-006 to 2.1043e-006
Heightened Def Con from 2.1043e-006 to 2.1063e-006
Heightened Def Con from 2.10645e-006 to 2.10645e-006
Heightened Def Con from 2.10645e-006 to 2.10758e-006
Heightened Def Con from 2.10833e-006 to 2.10933e-006
Heightened Def Con from 2.10933e-006 to 2.10947e-006
Heightened Def Con from 2.10948e-006 to 2.10949e-006
Heightened Def Con from 2.10949e-006 to 2.1095e-006
Heightened Def Con from 2.1095e-006 to 2.1115e-006
Heightened Def Con from 2.1115e-006 to 2.11162e-006
Heightened Def Con from 2.11172e-006 to 2.11197e-006
Heightened Def Con from 2.11197e-006 to 2.1131e-006
Heightened Def Con from 2.149e-006 to 2.14915e-006
Heightened Def Con from 2.14915e-006 to 2.15115e-006
Heightened Def Con from 2.15115e-006 to 2.15127e-006
Heightened Def Con from 2.15205e-006 to 2.15305e-006
Heightened Def Con from 2.15305e-006 to 2.15305e-006
Heightened Def Con from 2.15305e-006 to 2.15407e-006
Heightened Def Con from 2.15407e-006 to 2.15607e-006
Heightened Def Con from 2.15711e-006 to 2.15911e-006
Heightened Def Con from 2.1592e-006 to 2.1592e-006
Heightened Def Con from 2.1592e-006 to 2.15921e-006
Heightened Def Con from 2.15921e-006 to 2.15921e-006
Heightened Def Con from 2.15921e-006 to 2.15922e-006
Heightened Def Con from 2.15922e-006 to 2.15947e-006
Heightened Def Con from 2.16823e-006 to 2.16935e-006
Heightened Def Con from 2.16936e-006 to 2.17136e-006
Heightened Def Con from 2.24742e-006 to 2.24855e-006
Heightened Def Con from 2.24862e-006 to 2.25062e-006
Heightened Def Con from 2.29265e-006 to 2.2929e-006
Heightened Def Con from 2.29316e-006 +++to 2.29429e-006
Heightened Def Con from 2.29429e-006 +to 2.29531e-006
Heightened Def Con from 2.29531e-006 to 2.29531e-006
Heightened Def Con from 2.29531e-006 +to 2.29531e-006
Heightened Def Con from 2.29531e-006 to 2.29531e-006
Heightened Def Con from 2.29531e-006 to 2.29531e-006
Heightened Def Con from 2.29531e-006 to 2.29531e-006
Heightened Def Con from 2.29531e-006 +to 2.29531e-006
Heightened Def Con from 2.29531e-006 ++to 2.29531e-006
Heightened Def Con from 2.29532e-006 to 2.29532e-006
Heightened Def Con from 2.29532e-006 to 2.29645e-006
Heightened Def Con from 2.29645e-006 to 2.29845e-006
Heightened Def Con from 2.29845e-006 to 2.29858e-006
Heightened Def Con from 2.29861e-006 to 2.29974e-006
Heightened Def Con from 2.29974e-006 +++to 2.30075e-006
Heightened Def Con from 2.30075e-006 to 2.30275e-006
Heightened Def Con from 2.30275e-006 to 2.30377e-006
Heightened Def Con from 2.3038e-006 to 2.30405e-006
Heightened Def Con from 2.30408e-006 to 2.30608e-006
Heightened Def Con from 2.30809e-006 to 2.30821e-006
Heightened Def Con from 2.30822e-006 to 2.30847e-006
Heightened Def Con from 2.30851e-006 to 2.30851e-006
Heightened Def Con from 2.30851e-006 to 2.30863e-006
Heightened Def Con from 2.30863e-006 to 2.30888e-006
Heightened Def Con from 2.30888e-006 to 2.30988e-006
Heightened Def Con from 2.30991e-006 to 2.31191e-006
Heightened Def Con from 2.31194e-006 to 2.31394e-006
Heightened Def Con from 2.31394e-006 to 2.31506e-006
Heightened Def Con from 2.31506e-006 to 2.31619e-006
Heightened Def Con from 2.31622e-006 to 2.31822e-006
Heightened Def Con from 2.33222e-006 to 2.33224e-006
Heightened Def Con from 2.33224e-006 to 2.33249e-006
Heightened Def Con from 2.3334e-006 to 2.33442e-006
Heightened Def Con from 2.33444e-006 to 2.33456e-006
Heightened Def Con from 2.33456e-006 to 2.33456e-006
Heightened Def Con from 2.33456e-006 to 2.33456e-006
Heightened Def Con from 2.33456e-006 to 2.33456e-006
Heightened Def Con from 2.33456e-006 to 2.33457e-006
Heightened Def Con from 2.33458e-006 to 2.33458e-006
Heightened Def Con from 2.33458e-006 to 2.33458e-006
Heightened Def Con from 2.33458e-006 to 2.33471e-006
Heightened Def Con from 2.33471e-006 to 2.33471e-006
Heightened Def Con from 2.33471e-006 to 2.33583e-006
Heightened Def Con from 2.33584e-006 to 2.33585e-006
Heightened Def Con from 2.33585e-006 to 2.33585e-006
Heightened Def Con from 2.33585e-006 to 2.33585e-006
Heightened Def Con from 2.33586e-006 to 2.33586e-006
Heightened Def Con from 2.33586e-006 to 2.33586e-006
Heightened Def Con from 2.33586e-006 to 2.336e-006
Heightened Def Con from 2.336e-006 +to 2.33713e-006
Heightened Def Con from 2.33713e-006 to 2.33813e-006
Heightened Def Con from 2.33813e-006 to 2.33915e-006
Heightened Def Con from 2.33915e-006 to 2.33915e-006
Heightened Def Con from 2.33916e-006 +to 2.34028e-006
Heightened Def Con from 2.34037e-006 to 2.34038e-006
Heightened Def Con from 2.34038e-006 to 2.34038e-006
Heightened Def Con from 2.34038e-006 to 2.34038e-006
Heightened Def Con from 2.34039e-006 to 2.34039e-006
Heightened Def Con from 2.34039e-006 to 2.34039e-006
Heightened Def Con from 2.34039e-006 to 2.34039e-006
Heightened Def Con from 2.34039e-006 to 2.34039e-006
Heightened Def Con from 2.34039e-006 to 2.34039e-006
Heightened Def Con from 2.34039e-006 to 2.34039e-006
Heightened Def Con from 2.34039e-006 ++to 2.34151e-006
Heightened Def Con from 2.34152e-006 to 2.34352e-006
Heightened Def Con from 2.34395e-006 to 2.34495e-006
Heightened Def Con from 2.34496e-006 to 2.34696e-006
Heightened Def Con from 2.34697e-006 to 2.34722e-006
Heightened Def Con from 2.34722e-006 to 2.34834e-006
Heightened Def Con from 2.34898e-006 to 2.34911e-006
Heightened Def Con from 2.34912e-006 to 2.34912e-006
Heightened Def Con from 2.34912e-006 to 2.34937e-006
Heightened Def Con from 2.35024e-006 to 2.35037e-006
Heightened Def Con from 2.35037e-006 to 2.35037e-006
Heightened Def Con from 2.35037e-006 to 2.35037e-006
Heightened Def Con from 2.35037e-006 to 2.35062e-006
Heightened Def Con from 2.35064e-006 to 2.35264e-006
Heightened Def Con from 2.35551e-006 to 2.35551e-006
Heightened Def Con from 2.35551e-006 to 2.35751e-006
Heightened Def Con from 2.35752e-006 to 2.35952e-006
Heightened Def Con from 2.36007e-006 to 2.36032e-006
Heightened Def Con from 2.36035e-006 to 2.3605e-006
Heightened Def Con from 2.3605e-006 to 2.3625e-006
Heightened Def Con from 2.37128e-006 to 2.37142e-006
Heightened Def Con from 2.3717e-006 to 2.37182e-006
Heightened Def Con from 2.37182e-006 to 2.37382e-006
Heightened Def Con from 2.3742e-006 to 2.37533e-006
Heightened Def Con from 2.37534e-006 to 2.37734e-006
Heightened Def Con from 2.38765e-006 to 2.38878e-006
Heightened Def Con from 2.3889e-006 to 2.3899e-006
Heightened Def Con from 2.38992e-006 to 2.38994e-006
Heightened Def Con from 2.39052e-006 to 2.39165e-006
Heightened Def Con from 2.39254e-006 to 2.39454e-006
Heightened Def Con from 2.41059e-006 to 2.41259e-006
Heightened Def Con from 2.41876e-006 to 2.42076e-006
Heightened Def Con from 2.46186e-006 to 2.46299e-006
Heightened Def Con from 2.463e-006 to 2.463e-006
Heightened Def Con from 2.463e-006 to 2.46303e-006
Heightened Def Con from 2.46309e-006 to 2.46509e-006
Heightened Def Con from 2.51307e-006 to 2.51507e-006
Heightened Def Con from 2.52922e-006 to 2.53122e-006
Heightened Def Con from 2.53125e-006 to 2.53237e-006

Date: Fri Sep 24 15:40:14 2021
Total elapsed time: 8.702 seconds.

tnom = 27
temp = 27
method = modified trap
totiter = 724137
traniter = 722771
tranpoints = 126597
accept = 66838
rejected = 63254
matrix size = 52
fillins = 204
solver = Normal
Matrix Compiler1: 15.14 KB object code size  3.9/2.6/[1.2]
Matrix Compiler2: 7.82 KB object code size  2.5/6.4/[0.8]

