Circuit: * C:\users\ashmita\Desktop\ASHMITA\APanda_Lib_LTSpice\chua_TL082 (copy).asc

Early termination of direct N-R iteration.
Direct Newton iteration failed to find .op point.  (Use ".option noopiter" to skip.)
Starting Gmin stepping
Gmin = 10
vernier = 0.5
vernier = 0.25
vernier = 0.125
Gmin = 5.5165
vernier = 0.0625
vernier = 0.03125
vernier = 0.015625
vernier = 0.0078125
Gmin = 5.49501
vernier = 0.00390625
vernier = 0.00195313
vernier = 0.000976563
vernier = 0.000488281
Gmin = 5.50104
Gmin = 0
Gmin stepping failed

Starting source stepping with srcstepmethod=0
Source Step = 3.0303%
Source Step = 33.3333%
Source Step = 39.6307%
Source Step = 39.7343%
Source Step = 39.7638%
Source Step = 39.7934%
Source Step = 39.823%
Source Step = 39.8526%
Source Step = 39.8822%
vernier = 0.00146484
Source Step = 39.9148%
Source Step = 39.9592%
Source Step = 40.0036%
Source Step = 40.0479%
Source Step = 40.0923%
vernier = 0.00219727
Source Step = 40.1389%
Source Step = 40.2055%
Source Step = 40.2721%
Source Step = 40.3387%
Source Step = 40.4053%
Source Step = 40.4719%
vernier = 0.0032959
Source Step = 40.5717%
Source Step = 40.6716%
Source Step = 40.7715%
Source Step = 40.8714%
Source Step = 40.9712%
vernier = 0.00494385
Source Step = 41.1161%
Source Step = 41.2659%
Source Step = 41.3895%
Source Step = 41.4269%
Source Step = 41.4644%
Source Step = 41.5018%
Source Step = 41.5393%
Source Step = 41.5767%
vernier = 0.00185394
Source Step = 41.6329%
Source Step = 41.6891%
Source Step = 41.7453%
Source Step = 41.8015%
Source Step = 41.8576%
Source Step = 41.9138%
Source Step = 41.97%
vernier = 0.00278091
Source Step = 42.0486%
Source Step = 42.1329%
Source Step = 42.2172%
Source Step = 42.3015%
Source Step = 42.3857%
vernier = 0.00417137
Source Step = 42.4995%
Source Step = 42.6259%
Source Step = 42.7523%
Source Step = 42.8787%
Source Step = 43.0051%
vernier = 0.00625706
Source Step = 43.1694%
Source Step = 43.3259%
Source Step = 43.3733%
Source Step = 43.4207%
Source Step = 43.4681%
Source Step = 43.5155%
Source Step = 43.5629%
vernier = 0.0023464
Source Step = 43.6269%
Source Step = 43.698%
Source Step = 43.7691%
Source Step = 43.8402%
Source Step = 43.9113%
vernier = 0.00351959
Source Step = 44.0037%
Source Step = 44.1104%
Source Step = 44.217%
Source Step = 44.3237%
Source Step = 44.4303%
vernier = 0.00527939
Source Step = 44.5636%
Source Step = 44.7236%
Source Step = 44.8836%
Source Step = 45.0436%
Source Step = 45.2036%
vernier = 0.00791909
Source Step = 45.3956%
Source Step = 45.6355%
Source Step = 45.8755%
Starting source stepping with srcstepmethod=1
Source Step = 3.0303%
vernier = 0.25
Source Step = 1.61577%
Source stepping failed

Pseudo Transient succeeded in finding the operating point at 327.68 ms.
Changing Tseed to 1e-007
Changing Tseed to 1e-009
Changing Tseed to 1e-006
Changing Tseed to 1e-010
Changing Tseed to 1e-005

Date: Sat Oct 09 19:42:20 2021
Total elapsed time: 5.812 seconds.

tnom = 27
temp = 27
method = modified trap
totiter = 19794
traniter = 4146
tranpoints = 1505
accept = 1059
rejected = 441
matrix size = 102
fillins = 1016
solver = Normal
Thread vector: 27.2/20.5[2] 2.1/2.5[1] 5.4/3.7[2] 2.2/3.4[1]  2592/500
Matrix Compiler1:    5974 opcodes  18.3/9.3/[4.4]
Matrix Compiler2: 26.88 KB object code size  5.5/6.0/[3.6]

