Circuit: * C:\users\ashmita\Desktop\ASHMITA\APanda_Lib_LTSpice\Negative Resistance.asc

WARNING: Specified period is not longer than the sum of Trise, Tfall, and Ton for vs.  Increasing period to 1.06
Early termination of direct N-R iteration.
Direct Newton iteration failed to find .op point.  (Use ".option noopiter" to skip.)
Starting Gmin stepping
Gmin = 10
vernier = 0.5
vernier = 0.25
vernier = 0.125
Gmin = 5.5165
vernier = 0.0625
vernier = 0.03125
vernier = 0.015625
vernier = 0.0078125
Gmin = 5.49501
vernier = 0.00390625
vernier = 0.00195313
vernier = 0.000976563
vernier = 0.000488281
Gmin = 5.50104
Gmin = 0
Gmin stepping failed

Starting source stepping with srcstepmethod=0
Source Step = 3.0303%
Source Step = 33.3333%
Source Step = 63.6364%
Source Step = 93.9394%
Source stepping succeeded in finding the operating point.


Date: Sun Sep 19 08:33:46 2021
Total elapsed time: 0.630 seconds.

tnom = 27
temp = 27
method = modified trap
totiter = 18653
traniter = 17005
tranpoints = 6701
accept = 5191
rejected = 1510
matrix size = 53
fillins = 200
solver = Normal
Matrix Compiler1: 15.75 KB object code size  2.5/1.3/[0.8]
Matrix Compiler2: 8.08 KB object code size  6.5/7.5/[1.9]

