Circuit: * C:\users\ashmita\Desktop\ASHMITA\APanda_Lib_LTSpice\Negative Resistance.asc

Error on line 13 : v3 n001 n008 v
	 Unknown parameter "v"
V3: Missing value, assumed 0V @ DC

Date: Sat Oct 09 18:14:17 2021
Total elapsed time: 0.143 seconds.

tnom = 27
temp = 27
method = trap
totiter = 469
traniter = 0
tranpoints = 0
accept = 0
rejected = 0
matrix size = 53
fillins = 170
solver = Normal
Matrix Compiler1:     804 opcodes  9.0/[7.8]/9.6
Matrix Compiler2: off  [2.8]/5.4/5.1

