Circuit: * C:\users\ashmita\Desktop\ASHMITA\APanda_Lib_LTSpice\Negative Resistance (copy).asc

Error on line 9 : v3 n001 n006 v
	 Unknown parameter "v"
V3: Missing value, assumed 0V @ DC

Date: Sat Oct 09 22:18:04 2021
Total elapsed time: 0.131 seconds.

tnom = 27
temp = 27
method = trap
totiter = 445
traniter = 0
tranpoints = 0
accept = 0
rejected = 0
matrix size = 30
fillins = 48
solver = Normal
Matrix Compiler1: 3.81 KB object code size  2.9/1.8/[1.1]
Matrix Compiler2: 3.31 KB object code size  1.4/2.5/[1.1]

