Circuit: * C:\users\ashmita\Desktop\ASHMITA\APanda_Lib_LTSpice\NR1.asc

Direct Newton iteration for .op point succeeded.

Date: Sat Sep 18 09:37:33 2021
Total elapsed time: 0.075 seconds.

tnom = 27
temp = 27
method = modified trap
totiter = 1538
traniter = 1528
tranpoints = 708
accept = 486
rejected = 222
matrix size = 20
fillins = 4
solver = Normal
Matrix Compiler1: 1.44 KB object code size  0.4/0.3/[0.2]
Matrix Compiler2: 2.14 KB object code size  0.3/0.3/[0.2]

