Circuit: * C:\users\ashmita\Desktop\ASHMITA\APanda_Lib_LTSpice\Chua_TL082\chua_TL082.asc

Early termination of direct N-R iteration.
Direct Newton iteration failed to find .op point.  (Use ".option noopiter" to skip.)
Starting Gmin stepping
Gmin = 10
vernier = 0.5
vernier = 0.25
vernier = 0.125
Gmin = 5.5165
vernier = 0.0625
vernier = 0.03125
vernier = 0.015625
vernier = 0.0078125
Gmin = 5.49501
vernier = 0.00390625
vernier = 0.00195313
vernier = 0.000976563
vernier = 0.000488281
Gmin = 5.50104
Gmin = 0
Gmin stepping succeeded in finding the operating point.

Heightened Def Con from 3.66628e-007 +to 3.6663e-007
Heightened Def Con from 3.68542e-007 +to 3.68542e-007
Heightened Def Con from 3.68542e-007 to 3.68574e-007
Heightened Def Con from 3.69045e-007 to 3.7017e-007
Heightened Def Con from 3.7985e-007 to 3.79865e-007
Heightened Def Con from 3.79865e-007 to 3.81865e-007
Heightened Def Con from 3.83806e-007 to 3.83808e-007
Heightened Def Con from 3.8382e-007 to 3.83823e-007
Heightened Def Con from 3.83835e-007 ++to 3.83851e-007
Heightened Def Con from 3.83851e-007 to 3.84976e-007
Heightened Def Con from 4.88436e-007 to 4.88437e-007
Heightened Def Con from 4.88438e-007 +++to 4.88438e-007
Heightened Def Con from 4.88438e-007 to 4.88688e-007
Heightened Def Con from 4.8943e-007 to 4.89555e-007
Heightened Def Con from 4.89805e-007 +to 4.89807e-007
Heightened Def Con from 4.89876e-007 to 4.90016e-007
Heightened Def Con from 4.90561e-007 +to 4.90561e-007
Heightened Def Con from 4.90564e-007 to 4.90814e-007
Heightened Def Con from 4.92564e-007 to 4.92704e-007
Heightened Def Con from 4.92739e-007 +to 4.92755e-007
Heightened Def Con from 4.92758e-007 to 4.92758e-007
Heightened Def Con from 4.92758e-007 to 4.92759e-007
Heightened Def Con from 4.92759e-007 to 4.9279e-007
Heightened Def Con from 4.93259e-007 to 4.93259e-007
Heightened Def Con from 4.93259e-007 to 4.95259e-007
Heightened Def Con from 5.19754e-007 to 5.2077e-007
Heightened Def Con from 5.22784e-007 to 5.22784e-007
Heightened Def Con from 5.22785e-007 to 5.22816e-007
Heightened Def Con from 5.22872e-007 to 5.22872e-007
Heightened Def Con from 5.22872e-007 to 5.22872e-007
Heightened Def Con from 5.22872e-007 to 5.23122e-007
Heightened Def Con from 5.25696e-007 to 5.27696e-007
Heightened Def Con from 5.27696e-007 +to 5.27696e-007
Heightened Def Con from 5.27696e-007 to 5.29696e-007
Heightened Def Con from 5.30165e-007 to 5.3029e-007
Heightened Def Con from 5.3054e-007 to 5.30544e-007
Heightened Def Con from 5.30575e-007 to 5.30579e-007
Heightened Def Con from 5.30625e-007 to 5.3175e-007
Heightened Def Con from 1.60977e-006 to 1.6109e-006
Heightened Def Con from 1.61094e-006 to 1.61119e-006
Heightened Def Con from 1.61669e-006 to 1.61694e-006
Heightened Def Con from 1.61696e-006 to 1.61896e-006
Heightened Def Con from 1.61921e-006 to 1.62022e-006
Heightened Def Con from 1.62022e-006 to 1.62123e-006
Heightened Def Con from 1.62124e-006 to 1.62138e-006
Heightened Def Con from 1.62138e-006 to 1.62141e-006
Heightened Def Con from 1.62163e-006 to 1.62276e-006
Heightened Def Con from 1.62278e-006 to 1.62279e-006
Heightened Def Con from 1.62279e-006 to 1.62379e-006
Heightened Def Con from 1.62379e-006 to 1.6248e-006
Heightened Def Con from 1.6248e-006 to 1.6268e-006
Heightened Def Con from 1.6558e-006 to 1.6558e-006
Heightened Def Con from 1.6558e-006 to 1.6558e-006
Heightened Def Con from 1.6558e-006 to 1.6558e-006
Heightened Def Con from 1.6558e-006 to 1.6558e-006
Heightened Def Con from 1.6558e-006 to 1.6558e-006
Heightened Def Con from 1.6558e-006 to 1.6558e-006
Heightened Def Con from 1.6558e-006 to 1.6558e-006
Heightened Def Con from 1.6558e-006 to 1.6558e-006
Heightened Def Con from 1.6558e-006 to 1.6558e-006
Heightened Def Con from 1.6558e-006 +++++++++++++++++++++to 1.65582e-006
Heightened Def Con from 1.65582e-006 +++++++++++++++++++++to 1.65594e-006
Heightened Def Con from 1.65594e-006 +++++++++++++++++++++to 1.65594e-006
Heightened Def Con from 1.65594e-006 +++++++++++++++++++++to 1.65607e-006
Heightened Def Con from 1.65607e-006 +++++++++++++++++++++to 1.65607e-006
Heightened Def Con from 1.65607e-006 +++++++++++++++++++++to 1.65607e-006
Heightened Def Con from 1.65607e-006 +++++++++++++++++++++to 1.65619e-006
Heightened Def Con from 1.65619e-006 +++++++++++++++++++++to 1.65621e-006
Heightened Def Con from 1.65621e-006 +++++++++++++++++++++to 1.65721e-006
Heightened Def Con from 1.65721e-006 +++++++++++++++++++++to 1.65721e-006
Heightened Def Con from 1.65721e-006 +++++++++++++++++++++to 1.65821e-006
Heightened Def Con from 1.65821e-006 ++++++++++++++++++++++to 1.66021e-006
Heightened Def Con from 1.66021e-006 +++++++++++++++++++++to 1.66021e-006
Heightened Def Con from 1.66021e-006 +++++++++++++++++++++to 1.66021e-006
Heightened Def Con from 1.66021e-006 +++++++++++++++++++++to 1.66021e-006
Heightened Def Con from 1.66021e-006 +++++++++++++++++++++to 1.66021e-006
Heightened Def Con from 1.66021e-006 +++++++++++++++++++++to 1.66134e-006
Heightened Def Con from 1.66134e-006 +++++++++++++++++++++to 1.66146e-006
Heightened Def Con from 1.66146e-006 +++++++++++++++++++++to 1.66146e-006
Heightened Def Con from 1.66146e-006 +++++++++++++++++++++to 1.66246e-006
Heightened Def Con from 1.66246e-006 +++++++++++++++++++++to 1.66346e-006
Heightened Def Con from 1.66346e-006 +++++++++++++++++++++to 1.66346e-006
Heightened Def Con from 1.66346e-006 ++++++++++++++++++++++to 1.66359e-006
Heightened Def Con from 1.66359e-006 +++++++++++++++++++++to 1.66359e-006
Heightened Def Con from 1.66359e-006 +++++++++++++++++++++to 1.66361e-006
Heightened Def Con from 1.66361e-006 +++++++++++++++++++++to 1.66361e-006
Heightened Def Con from 1.66361e-006 ++++++++++++++++++++++to 1.66373e-006
Heightened Def Con from 1.66373e-006 +++++++++++++++++++++to 1.66386e-006
Heightened Def Con from 1.66386e-006 +++++++++++++++++++++to 1.66386e-006
Heightened Def Con from 1.66386e-006 +++++++++++++++++++++to 1.66386e-006
Heightened Def Con from 1.66386e-006 ++++++++++++++++++++++to 1.66386e-006
Heightened Def Con from 1.66386e-006 ++++++++++++++++++++++to 1.66388e-006
Heightened Def Con from 1.66388e-006 +++++++++++++++++++++to 1.66388e-006
Heightened Def Con from 1.66388e-006 +++++++++++++++++++++to 1.66388e-006
Heightened Def Con from 1.66388e-006 +++++++++++++++++++++to 1.66388e-006
Heightened Def Con from 1.66388e-006 ++++++++++++++++++++++to 1.66389e-006
Heightened Def Con from 1.66389e-006 ++++++++++++++++++++++to 1.66689e-006
Heightened Def Con from 1.66689e-006 to 1.66802e-006
Heightened Def Con from 1.66805e-006 to 1.66805e-006
Heightened Def Con from 1.66805e-006 to 1.6683e-006
Heightened Def Con from 1.67005e-006 to 1.67005e-006
Heightened Def Con from 1.67005e-006 to 1.67005e-006
Heightened Def Con from 1.67005e-006 to 1.6703e-006
Heightened Def Con from 1.6704e-006 to 1.67041e-006
Heightened Def Con from 1.67041e-006 to 1.67045e-006
Heightened Def Con from 1.67048e-006 to 1.67048e-006
Heightened Def Con from 1.67048e-006 to 1.67048e-006
Heightened Def Con from 1.67048e-006 to 1.67048e-006
Heightened Def Con from 1.67048e-006 to 1.67048e-006
Heightened Def Con from 1.67048e-006 to 1.6715e-006
Heightened Def Con from 1.6715e-006 to 1.6715e-006
Heightened Def Con from 1.6715e-006 to 1.6735e-006
Heightened Def Con from 1.67487e-006 to 1.67512e-006
Heightened Def Con from 1.67543e-006 to 1.67743e-006
Heightened Def Con from 1.70028e-006 to 1.70129e-006
Heightened Def Con from 1.70129e-006 to 1.70329e-006
Heightened Def Con from 1.70333e-006 to 1.70446e-006
Heightened Def Con from 1.75586e-006 +to 1.75786e-006
Heightened Def Con from 1.76388e-006 to 1.76588e-006
Heightened Def Con from 1.7685e-006 to 1.7695e-006
Heightened Def Con from 1.7695e-006 to 1.7695e-006
Heightened Def Con from 1.76951e-006 to 1.77151e-006
Heightened Def Con from 1.77154e-006 to 1.77155e-006
Heightened Def Con from 1.77155e-006 to 1.77158e-006
Heightened Def Con from 1.77158e-006 to 1.77158e-006
Heightened Def Con from 1.77158e-006 to 1.77171e-006
Heightened Def Con from 1.77172e-006 to 1.77174e-006
Heightened Def Con from 1.77174e-006 to 1.77174e-006
Heightened Def Con from 1.77174e-006 to 1.77174e-006
Heightened Def Con from 1.77174e-006 to 1.77174e-006
Heightened Def Con from 1.77174e-006 to 1.77274e-006
Heightened Def Con from 1.77274e-006 to 1.77277e-006
Heightened Def Con from 1.77278e-006 to 1.77478e-006
Heightened Def Con from 1.77478e-006 to 1.77478e-006
Heightened Def Con from 1.77478e-006 to 1.77478e-006
Heightened Def Con from 1.77478e-006 to 1.77478e-006
Heightened Def Con from 1.77478e-006 to 1.77491e-006
Heightened Def Con from 1.77492e-006 to 1.77492e-006
Heightened Def Con from 1.77492e-006 to 1.77494e-006
Heightened Def Con from 1.77494e-006 to 1.77494e-006
Heightened Def Con from 1.77494e-006 to 1.77519e-006
Heightened Def Con from 1.77519e-006 to 1.77532e-006
Heightened Def Con from 1.77532e-006 to 1.77532e-006
Heightened Def Con from 1.77532e-006 to 1.77532e-006
Heightened Def Con from 1.77532e-006 to 1.77532e-006
Heightened Def Con from 1.77532e-006 to 1.77532e-006
Heightened Def Con from 1.77532e-006 to 1.77532e-006
Heightened Def Con from 1.77532e-006 to 1.77532e-006
Heightened Def Con from 1.77532e-006 +to 1.77532e-006
Heightened Def Con from 1.77532e-006 +to 1.77532e-006
Heightened Def Con from 1.77532e-006 to 1.77532e-006
Heightened Def Con from 1.77532e-006 to 1.77532e-006
Heightened Def Con from 1.77532e-006 to 1.77532e-006
Heightened Def Con from 1.77532e-006 to 1.77532e-006
Heightened Def Con from 1.77532e-006 to 1.77532e-006
Heightened Def Con from 1.77532e-006 to 1.77532e-006
Heightened Def Con from 1.77532e-006 +to 1.77532e-006
Heightened Def Con from 1.77532e-006 to 1.77532e-006
Heightened Def Con from 1.77532e-006 to 1.77532e-006
Heightened Def Con from 1.77532e-006 to 1.77532e-006
Heightened Def Con from 1.77532e-006 to 1.77532e-006
Heightened Def Con from 1.77532e-006 to 1.77532e-006
Heightened Def Con from 1.77532e-006 ++to 1.77532e-006
Heightened Def Con from 1.77532e-006 +to 1.77532e-006
Heightened Def Con from 1.77532e-006 to 1.77532e-006
Heightened Def Con from 1.77532e-006 to 1.77532e-006
Heightened Def Con from 1.77532e-006 ++++++++++++++++++++to 1.77545e-006
Heightened Def Con from 1.77545e-006 ++++++++++++++++++++to 1.77557e-006
Heightened Def Con from 1.77557e-006 ++++++++++++++++++++to 1.77557e-006
Heightened Def Con from 1.77557e-006 ++++++++++++++++++++to 1.7757e-006
Heightened Def Con from 1.7757e-006 +++++++++to 1.7757e-006
Heightened Def Con from 1.7757e-006 ++++++++++++++++++++to 1.77582e-006
Heightened Def Con from 1.77582e-006 ++++++++++++++++++++to 1.77582e-006
Heightened Def Con from 1.77582e-006 ++++++++++++++++++++to 1.77582e-006
Heightened Def Con from 1.77582e-006 ++++++++++++++++++++to 1.77782e-006
Heightened Def Con from 1.77782e-006 ++++++++++++++++++++to 1.77982e-006
Heightened Def Con from 1.77982e-006 ++++++++++++++++++++to 1.78095e-006
Heightened Def Con from 1.78095e-006 ++++++++++++++++++++to 1.78295e-006
Heightened Def Con from 1.78295e-006 ++++++++++++++++++++to 1.78395e-006
Heightened Def Con from 1.78395e-006 ++++++++++++++++++++to 1.78495e-006
Heightened Def Con from 1.78495e-006 +++++++to 1.78595e-006
Heightened Def Con from 1.78595e-006 +++++++to 1.78695e-006
Heightened Def Con from 1.78695e-006 +++++++to 1.78795e-006
Heightened Def Con from 1.78795e-006 +++++++to 1.78895e-006
Heightened Def Con from 1.78895e-006 +++++++to 1.78907e-006
Heightened Def Con from 1.78907e-006 +++++++to 1.7892e-006
Heightened Def Con from 1.7892e-006 +++++++to 1.7902e-006
Heightened Def Con from 1.7902e-006 ++to 1.7912e-006
Heightened Def Con from 1.79951e-006 to 1.80053e-006
Heightened Def Con from 1.80177e-006 to 1.80202e-006
Heightened Def Con from 1.80227e-006 to 1.8024e-006
Heightened Def Con from 1.81324e-006 +++++++to 1.81424e-006
Heightened Def Con from 1.81424e-006 to 1.81524e-006
Heightened Def Con from 1.81555e-006 to 1.81556e-006
Heightened Def Con from 1.81556e-006 to 1.81558e-006
Heightened Def Con from 1.81558e-006 to 1.81558e-006
Heightened Def Con from 1.81558e-006 to 1.81558e-006
Heightened Def Con from 1.81558e-006 to 1.81558e-006
Heightened Def Con from 1.81558e-006 to 1.81572e-006
Heightened Def Con from 1.81573e-006 to 1.81573e-006
Heightened Def Con from 1.81573e-006 to 1.81573e-006
Heightened Def Con from 1.81573e-006 to 1.81585e-006
Heightened Def Con from 1.81585e-006 to 1.81698e-006
Heightened Def Con from 1.81698e-006 to 1.81898e-006
Heightened Def Con from 1.81898e-006 to 1.81898e-006
Heightened Def Con from 1.81898e-006 to 1.81898e-006
Heightened Def Con from 1.81898e-006 to 1.819e-006
Heightened Def Con from 1.819e-006 to 1.819e-006
Heightened Def Con from 1.819e-006 to 1.82012e-006
Heightened Def Con from 1.82037e-006 to 1.82037e-006
Heightened Def Con from 1.82037e-006 to 1.8204e-006
Heightened Def Con from 1.82041e-006 to 1.82041e-006
Heightened Def Con from 1.82041e-006 to 1.82153e-006
Heightened Def Con from 1.89484e-006 to 1.89484e-006
Heightened Def Con from 1.89484e-006 to 1.89484e-006
Heightened Def Con from 1.89484e-006 to 1.89484e-006
Heightened Def Con from 1.89484e-006 +++++++++++++++to 1.89484e-006
Heightened Def Con from 1.89484e-006 ++++++++++++++++to 1.89484e-006
Heightened Def Con from 1.89484e-006 +++++++++++++++to 1.89484e-006
Heightened Def Con from 1.89484e-006 +++++++++++++++to 1.89486e-006
Heightened Def Con from 1.89486e-006 +++++++++++++++to 1.89499e-006
Heightened Def Con from 1.89499e-006 +++++++++++++++to 1.89499e-006
Heightened Def Con from 1.89499e-006 +++++++++++++++to 1.89499e-006
Heightened Def Con from 1.89499e-006 +++++++++++++++to 1.89511e-006
Heightened Def Con from 1.89511e-006 +++++++++++++++to 1.89511e-006
Heightened Def Con from 1.89511e-006 +++++++++++++++to 1.89611e-006
Heightened Def Con from 1.89858e-006 to 1.89861e-006
Heightened Def Con from 1.89861e-006 to 1.89886e-006
Heightened Def Con from 1.89911e-006 to 1.89936e-006
Heightened Def Con from 1.89937e-006 to 1.89951e-006
Heightened Def Con from 1.89951e-006 to 1.90151e-006
Heightened Def Con from 1.90151e-006 to 1.90251e-006
Heightened Def Con from 1.90251e-006 to 1.90265e-006
Heightened Def Con from 1.90268e-006 to 1.9027e-006
Heightened Def Con from 1.9027e-006 to 1.9027e-006
Heightened Def Con from 1.9027e-006 to 1.9027e-006
Heightened Def Con from 1.9027e-006 to 1.9027e-006
Heightened Def Con from 1.9027e-006 to 1.9027e-006
Heightened Def Con from 1.9027e-006 to 1.90283e-006
Heightened Def Con from 1.90283e-006 to 1.90283e-006
Heightened Def Con from 1.90283e-006 to 1.90284e-006
Heightened Def Con from 1.90284e-006 to 1.90297e-006
Heightened Def Con from 1.90297e-006 to 1.90297e-006
Heightened Def Con from 1.90297e-006 to 1.90297e-006
Heightened Def Con from 1.90297e-006 to 1.90297e-006
Heightened Def Con from 1.90297e-006 +to 1.90298e-006
Heightened Def Con from 1.90298e-006 to 1.90298e-006
Heightened Def Con from 1.90298e-006 to 1.903e-006
Heightened Def Con from 1.903e-006 to 1.903e-006
Heightened Def Con from 1.903e-006 to 1.903e-006
Heightened Def Con from 1.903e-006 +to 1.903e-006
Heightened Def Con from 1.903e-006 to 1.903e-006
Heightened Def Con from 1.903e-006 to 1.903e-006
Heightened Def Con from 1.903e-006 to 1.903e-006
Heightened Def Con from 1.903e-006 to 1.903e-006
Heightened Def Con from 1.903e-006 to 1.903e-006
Heightened Def Con from 1.903e-006 +to 1.903e-006
Heightened Def Con from 1.903e-006 ++to 1.903e-006
Heightened Def Con from 1.903e-006 to 1.903e-006
Heightened Def Con from 1.903e-006 to 1.903e-006
Heightened Def Con from 1.903e-006 +++++++++++++++to 1.903e-006
Heightened Def Con from 1.903e-006 +++++++++++++to 1.90301e-006
Heightened Def Con from 1.90301e-006 ++++++++++++to 1.90301e-006
Heightened Def Con from 1.90301e-006 ++++++++++++++to 1.90302e-006
Heightened Def Con from 1.90302e-006 ++++++++++++++++to 1.90315e-006
Heightened Def Con from 1.90315e-006 ++++++++++++++++to 1.90327e-006
Heightened Def Con from 1.90327e-006 ++++++++++++++++to 1.90427e-006
Heightened Def Con from 1.90627e-006 to 1.90729e-006
Heightened Def Con from 1.9073e-006 to 1.9073e-006
Heightened Def Con from 1.9073e-006 to 1.9073e-006
Heightened Def Con from 1.9073e-006 to 1.9073e-006
Heightened Def Con from 1.9073e-006 to 1.90731e-006
Heightened Def Con from 1.90731e-006 to 1.90743e-006
Heightened Def Con from 1.90743e-006 to 1.90743e-006
Heightened Def Con from 1.90743e-006 to 1.90744e-006
Heightened Def Con from 1.90744e-006 to 1.90744e-006
Heightened Def Con from 1.90744e-006 to 1.90745e-006
Heightened Def Con from 1.90745e-006 to 1.90758e-006
Heightened Def Con from 1.90758e-006 to 1.90858e-006
Heightened Def Con from 1.90858e-006 +to 1.90858e-006
Heightened Def Con from 1.90858e-006 to 1.90858e-006
Heightened Def Con from 1.90858e-006 to 1.90858e-006
Heightened Def Con from 1.90858e-006 +to 1.90858e-006
Heightened Def Con from 1.90858e-006 to 1.90872e-006
Heightened Def Con from 1.90872e-006 +to 1.90972e-006
Heightened Def Con from 1.90972e-006 to 1.90972e-006
Heightened Def Con from 1.90972e-006 ++to 1.90985e-006
Heightened Def Con from 1.90985e-006 to 1.90985e-006
Heightened Def Con from 1.90985e-006 +to 1.91085e-006
Heightened Def Con from 1.91085e-006 ++to 1.91097e-006
Heightened Def Con from 1.91099e-006 to 1.91099e-006
Heightened Def Con from 1.91099e-006 +to 1.91199e-006
Heightened Def Con from 1.91199e-006 to 1.91299e-006
Heightened Def Con from 1.91299e-006 to 1.91399e-006
Heightened Def Con from 1.91599e-006 to 1.916e-006
Heightened Def Con from 1.916e-006 to 1.91614e-006
Heightened Def Con from 1.91617e-006 to 1.91817e-006
Heightened Def Con from 1.93468e-006 to 1.93468e-006
Heightened Def Con from 1.93468e-006 to 1.93468e-006
Heightened Def Con from 1.93468e-006 to 1.93468e-006
Heightened Def Con from 1.93468e-006 ++++++++++++++++to 1.93481e-006
Heightened Def Con from 1.93481e-006 ++++++++++++++++to 1.93581e-006
Heightened Def Con from 1.93581e-006 ++++++++++++++++to 1.93681e-006
Heightened Def Con from 1.93681e-006 to 1.93681e-006
Heightened Def Con from 1.93681e-006 +++++++++++++++to 1.93681e-006
Heightened Def Con from 1.93681e-006 +++++++++++++++to 1.93681e-006
Heightened Def Con from 1.93681e-006 ++++++++++++++++to 1.93683e-006
Heightened Def Con from 1.93683e-006 +++++++++++++++to 1.93783e-006
Heightened Def Con from 1.93783e-006 ++++++++++++++++to 1.93883e-006
Heightened Def Con from 1.93883e-006 +++++++++++++++to 1.93883e-006
Heightened Def Con from 1.93883e-006 ++++++++++++++++to 1.93983e-006
Heightened Def Con from 1.93983e-006 +++++++++++++++to 1.93983e-006
Heightened Def Con from 1.93983e-006 +++++++++++++++to 1.93983e-006
Heightened Def Con from 1.93983e-006 +++++++++++++++to 1.93995e-006
Heightened Def Con from 1.93995e-006 +++++++++++++++to 1.93995e-006
Heightened Def Con from 1.93995e-006 +++++++++++++++to 1.93995e-006
Heightened Def Con from 1.93995e-006 ++++++++++++++++to 1.94095e-006
Heightened Def Con from 1.94095e-006 ++++++++++++++++to 1.94195e-006
Heightened Def Con from 1.94195e-006 ++++++++++++++++to 1.94295e-006
Heightened Def Con from 1.94295e-006 ++++++++++++++++to 1.94308e-006
Heightened Def Con from 1.94308e-006 ++++++++++++++++to 1.94408e-006
Heightened Def Con from 1.94408e-006 +to 1.94508e-006
Heightened Def Con from 1.94508e-006 to 1.94621e-006
Heightened Def Con from 1.94696e-006 to 1.94696e-006
Heightened Def Con from 1.94697e-006 to 1.94897e-006
Heightened Def Con from 1.95206e-006 to 1.95209e-006
Heightened Def Con from 1.95209e-006 to 1.95409e-006
Heightened Def Con from 1.95434e-006 ++to 1.95436e-006
Heightened Def Con from 1.95436e-006 to 1.95436e-006
Heightened Def Con from 1.95436e-006 to 1.95436e-006
Heightened Def Con from 1.95436e-006 to 1.95436e-006
Heightened Def Con from 1.95436e-006 to 1.95436e-006
Heightened Def Con from 1.95436e-006 to 1.95449e-006
Heightened Def Con from 1.95449e-006 to 1.95649e-006
Heightened Def Con from 1.95649e-006 to 1.95662e-006
Heightened Def Con from 1.95666e-006 to 1.95666e-006
Heightened Def Con from 1.95666e-006 to 1.95669e-006
Heightened Def Con from 1.95669e-006 +to 1.95769e-006
Heightened Def Con from 1.98789e-006 to 1.9889e-006
Heightened Def Con from 1.9889e-006 to 1.98892e-006
Heightened Def Con from 1.98893e-006 to 1.98994e-006
Heightened Def Con from 1.98994e-006 to 1.98994e-006
Heightened Def Con from 1.98994e-006 to 1.99008e-006
Heightened Def Con from 1.99011e-006 to 1.99124e-006
Heightened Def Con from 1.99124e-006 to 1.99124e-006
Heightened Def Con from 1.99125e-006 to 1.99126e-006
Heightened Def Con from 1.99126e-006 to 1.99129e-006
Heightened Def Con from 1.99129e-006 to 1.99242e-006
Heightened Def Con from 1.99242e-006 to 1.99245e-006
Heightened Def Con from 1.99245e-006 to 1.99247e-006
Heightened Def Con from 1.99251e-006 to 1.99253e-006
Heightened Def Con from 1.99253e-006 to 1.99453e-006
Heightened Def Con from 2.00184e-006 to 2.00197e-006
Heightened Def Con from 2.00197e-006 to 2.00298e-006
Heightened Def Con from 2.00302e-006 to 2.00502e-006
Heightened Def Con from 2.01116e-006 to 2.01117e-006
Heightened Def Con from 2.01117e-006 to 2.01317e-006
Heightened Def Con from 2.01342e-006 to 2.01442e-006
Heightened Def Con from 2.01442e-006 to 2.01642e-006
Heightened Def Con from 2.01644e-006 to 2.01744e-006
Heightened Def Con from 2.01744e-006 to 2.01758e-006
Heightened Def Con from 2.01758e-006 to 2.01758e-006
Heightened Def Con from 2.01758e-006 to 2.01758e-006
Heightened Def Con from 2.01758e-006 to 2.01758e-006
Heightened Def Con from 2.01758e-006 to 2.01773e-006
Heightened Def Con from 2.01773e-006 to 2.01773e-006
Heightened Def Con from 2.01773e-006 to 2.01773e-006
Heightened Def Con from 2.01773e-006 to 2.01785e-006
Heightened Def Con from 2.01785e-006 +++++++++++++to 2.01785e-006
Heightened Def Con from 2.01785e-006 to 2.01798e-006
Heightened Def Con from 2.01798e-006 to 2.01799e-006
Heightened Def Con from 2.01799e-006 to 2.018e-006
Heightened Def Con from 2.018e-006 to 2.01801e-006
Heightened Def Con from 2.01801e-006 to 2.01801e-006
Heightened Def Con from 2.01801e-006 to 2.01801e-006
Heightened Def Con from 2.01801e-006 to 2.01803e-006
Heightened Def Con from 2.01804e-006 to 2.01804e-006
Heightened Def Con from 2.01804e-006 to 2.01804e-006
Heightened Def Con from 2.01804e-006 to 2.01804e-006
Heightened Def Con from 2.01804e-006 to 2.01804e-006
Heightened Def Con from 2.01804e-006 to 2.01804e-006
Heightened Def Con from 2.01804e-006 to 2.01804e-006
Heightened Def Con from 2.01804e-006 to 2.01804e-006
Heightened Def Con from 2.01804e-006 to 2.01804e-006
Heightened Def Con from 2.01804e-006 to 2.01804e-006
Heightened Def Con from 2.01804e-006 to 2.01804e-006
Heightened Def Con from 2.01804e-006 to 2.01805e-006
Heightened Def Con from 2.01805e-006 to 2.01805e-006
Heightened Def Con from 2.01805e-006 to 2.01805e-006
Heightened Def Con from 2.01805e-006 to 2.01805e-006
Heightened Def Con from 2.01805e-006 to 2.01805e-006
Heightened Def Con from 2.01805e-006 to 2.01805e-006
Heightened Def Con from 2.01805e-006 ++++++++++++++to 2.0183e-006
Heightened Def Con from 2.0183e-006 ++++++++++++++to 2.0193e-006
Heightened Def Con from 2.0193e-006 to 2.01931e-006
Heightened Def Con from 2.01931e-006 ++++++++++++++to 2.02031e-006
Heightened Def Con from 2.02031e-006 +++++++++++++++to 2.02131e-006
Heightened Def Con from 2.02131e-006 ++++++++++++++to 2.02133e-006
Heightened Def Con from 2.02133e-006 ++++++++++++++to 2.02133e-006
Heightened Def Con from 2.02133e-006 ++++++++++++++to 2.02233e-006
Heightened Def Con from 2.04356e-006 to 2.04469e-006
Heightened Def Con from 2.04647e-006 to 2.04672e-006
Heightened Def Con from 2.04775e-006 to 2.04887e-006
Heightened Def Con from 2.04887e-006 to 2.04901e-006
Heightened Def Con from 2.04933e-006 to 2.04958e-006
Heightened Def Con from 2.04969e-006 to 2.05069e-006
Heightened Def Con from 2.05069e-006 to 2.05182e-006
Heightened Def Con from 2.05369e-006 to 2.05372e-006
Heightened Def Con from 2.05381e-006 to 2.05406e-006
Heightened Def Con from 2.05406e-006 to 2.05406e-006
Heightened Def Con from 2.05407e-006 to 2.05408e-006
Heightened Def Con from 2.05408e-006 to 2.0541e-006
Heightened Def Con from 2.05411e-006 to 2.05411e-006
Heightened Def Con from 2.05411e-006 to 2.05411e-006
Heightened Def Con from 2.05411e-006 +to 2.05412e-006
Heightened Def Con from 2.05415e-006 to 2.05415e-006
Heightened Def Con from 2.05415e-006 to 2.05415e-006
Heightened Def Con from 2.05415e-006 to 2.05416e-006
Heightened Def Con from 2.05416e-006 to 2.05416e-006
Heightened Def Con from 2.05416e-006 to 2.05416e-006
Heightened Def Con from 2.05416e-006 to 2.05416e-006
Heightened Def Con from 2.05416e-006 to 2.05417e-006
Heightened Def Con from 2.05419e-006 +++++++++++++to 2.0552e-006
Heightened Def Con from 2.0552e-006 +++++++++to 2.0562e-006
Heightened Def Con from 2.0562e-006 to 2.05722e-006
Heightened Def Con from 2.05722e-006 to 2.05922e-006
Heightened Def Con from 2.05947e-006 to 2.05972e-006
Heightened Def Con from 2.05977e-006 to 2.06002e-006
Heightened Def Con from 2.06002e-006 to 2.06002e-006
Heightened Def Con from 2.06002e-006 to 2.06027e-006
Heightened Def Con from 2.06027e-006 to 2.06027e-006
Heightened Def Con from 2.06027e-006 to 2.06027e-006
Heightened Def Con from 2.06027e-006 to 2.06027e-006
Heightened Def Con from 2.06027e-006 to 2.06027e-006
Heightened Def Con from 2.06027e-006 to 2.06027e-006
Heightened Def Con from 2.06027e-006 to 2.06027e-006
Heightened Def Con from 2.06027e-006 +to 2.06027e-006
Heightened Def Con from 2.06027e-006 to 2.06027e-006
Heightened Def Con from 2.06027e-006 to 2.06027e-006
Heightened Def Con from 2.06027e-006 +to 2.06027e-006
Heightened Def Con from 2.06027e-006 to 2.06028e-006
Heightened Def Con from 2.06028e-006 +++++++++++++to 2.06042e-006
Heightened Def Con from 2.06042e-006 +++++++++++++to 2.06043e-006
Heightened Def Con from 2.06043e-006 +++++to 2.06243e-006
Heightened Def Con from 2.06445e-006 to 2.06446e-006
Heightened Def Con from 2.06446e-006 to 2.06459e-006
Heightened Def Con from 2.06459e-006 to 2.06473e-006
Heightened Def Con from 2.06476e-006 to 2.06476e-006
Heightened Def Con from 2.06476e-006 to 2.06589e-006
Heightened Def Con from 2.06644e-006 to 2.06745e-006
Heightened Def Con from 2.06749e-006 to 2.06949e-006
Heightened Def Con from 2.06982e-006 to 2.07007e-006
Heightened Def Con from 2.07007e-006 to 2.07119e-006
Heightened Def Con from 2.07197e-006 to 2.07199e-006
Heightened Def Con from 2.07199e-006 to 2.07199e-006
Heightened Def Con from 2.072e-006 to 2.07313e-006
Heightened Def Con from 2.07388e-006 +to 2.07488e-006
Heightened Def Con from 2.07513e-006 to 2.07626e-006
Heightened Def Con from 2.07673e-006 to 2.07674e-006
Heightened Def Con from 2.07674e-006 +to 2.07774e-006
Heightened Def Con from 2.07774e-006 to 2.07774e-006
Heightened Def Con from 2.07774e-006 to 2.07776e-006
Heightened Def Con from 2.07776e-006 to 2.07976e-006
Heightened Def Con from 2.08002e-006 to 2.08115e-006
Heightened Def Con from 2.08117e-006 to 2.08117e-006
Heightened Def Con from 2.08117e-006 to 2.0823e-006
Heightened Def Con from 2.08234e-006 to 2.08248e-006
Heightened Def Con from 2.0827e-006 to 2.08382e-006
Heightened Def Con from 2.09167e-006 to 2.09167e-006
Heightened Def Con from 2.09167e-006 to 2.0917e-006
Heightened Def Con from 2.09195e-006 to 2.09196e-006
Heightened Def Con from 2.09197e-006 to 2.09309e-006
Heightened Def Con from 2.09355e-006 to 2.09455e-006
Heightened Def Con from 2.09467e-006 to 2.0948e-006
Heightened Def Con from 2.0948e-006 to 2.09494e-006
Heightened Def Con from 2.0951e-006 to 2.09512e-006
Heightened Def Con from 2.09512e-006 to 2.09512e-006
Heightened Def Con from 2.09512e-006 to 2.09512e-006
Heightened Def Con from 2.09512e-006 to 2.09514e-006
Heightened Def Con from 2.09514e-006 to 2.09515e-006
Heightened Def Con from 2.09515e-006 to 2.09516e-006
Heightened Def Con from 2.09517e-006 to 2.09517e-006
Heightened Def Con from 2.09517e-006 to 2.09517e-006
Heightened Def Con from 2.09517e-006 +to 2.09517e-006
Heightened Def Con from 2.09517e-006 to 2.09517e-006
Heightened Def Con from 2.09517e-006 ++++++++++to 2.0953e-006
Heightened Def Con from 2.0953e-006 +++++++++to 2.0953e-006
Heightened Def Con from 2.0953e-006 ++++++++++to 2.0953e-006
Heightened Def Con from 2.0953e-006 to 2.09531e-006
Heightened Def Con from 2.09531e-006 +++++++++to 2.09531e-006
Heightened Def Con from 2.09531e-006 ++++++++++to 2.09531e-006
Heightened Def Con from 2.09531e-006 ++++to 2.09532e-006
Heightened Def Con from 2.09532e-006 ++++++++++to 2.09544e-006
Heightened Def Con from 2.09544e-006 ++to 2.09544e-006
Heightened Def Con from 2.09544e-006 ++to 2.09644e-006
Heightened Def Con from 2.09733e-006 to 2.09733e-006
Heightened Def Con from 2.09733e-006 to 2.09735e-006
Heightened Def Con from 2.09737e-006 to 2.09738e-006
Heightened Def Con from 2.09738e-006 to 2.09751e-006
Heightened Def Con from 2.09777e-006 to 2.09791e-006
Heightened Def Con from 2.09794e-006 to 2.09808e-006
Heightened Def Con from 2.09808e-006 to 2.09808e-006
Heightened Def Con from 2.09808e-006 to 2.09811e-006
Heightened Def Con from 2.09812e-006 to 2.09824e-006
Heightened Def Con from 2.09824e-006 to 2.09825e-006
Heightened Def Con from 2.09825e-006 to 2.09825e-006
Heightened Def Con from 2.09825e-006 to 2.09825e-006
Heightened Def Con from 2.09825e-006 to 2.09825e-006
Heightened Def Con from 2.09825e-006 ++to 2.09825e-006
Heightened Def Con from 2.09825e-006 to 2.09825e-006
Heightened Def Con from 2.09825e-006 to 2.09825e-006
Heightened Def Con from 2.09825e-006 to 2.09825e-006
Heightened Def Con from 2.09825e-006 to 2.09825e-006
Heightened Def Con from 2.09825e-006 ++to 2.09837e-006
Heightened Def Con from 2.09837e-006 ++to 2.09937e-006
Heightened Def Con from 2.09937e-006 to 2.09939e-006
Heightened Def Con from 2.09939e-006 to 2.10051e-006
Heightened Def Con from 2.10052e-006 to 2.10077e-006
Heightened Def Con from 2.10102e-006 +to 2.10115e-006
Heightened Def Con from 2.10116e-006 ++++++to 2.10117e-006
Heightened Def Con from 2.10118e-006 +to 2.10118e-006
Heightened Def Con from 2.10118e-006 to 2.10118e-006
Heightened Def Con from 2.10118e-006 to 2.10118e-006
Heightened Def Con from 2.10118e-006 to 2.10118e-006
Heightened Def Con from 2.10118e-006 +to 2.10118e-006
Heightened Def Con from 2.10118e-006 +to 2.1013e-006
Heightened Def Con from 2.1013e-006 to 2.1013e-006
Heightened Def Con from 2.1013e-006 to 2.1013e-006
Heightened Def Con from 2.1013e-006 to 2.10132e-006
Heightened Def Con from 2.10132e-006 +to 2.10146e-006
Heightened Def Con from 2.10146e-006 to 2.10146e-006
Heightened Def Con from 2.10146e-006 ++to 2.10146e-006
Heightened Def Con from 2.10146e-006 +to 2.10146e-006
Heightened Def Con from 2.10146e-006 to 2.10346e-006
Heightened Def Con from 2.10434e-006 to 2.10459e-006
Heightened Def Con from 2.10459e-006 to 2.10484e-006
Heightened Def Con from 2.10484e-006 to 2.10484e-006
Heightened Def Con from 2.10484e-006 to 2.10684e-006
Heightened Def Con from 2.1089e-006 to 2.1089e-006
Heightened Def Con from 2.1089e-006 to 2.10903e-006
Heightened Def Con from 2.10903e-006 to 2.10903e-006
Heightened Def Con from 2.10903e-006 to 2.10905e-006
Heightened Def Con from 2.10905e-006 to 2.10905e-006
Heightened Def Con from 2.10905e-006 to 2.11005e-006
Heightened Def Con from 2.11005e-006 to 2.11106e-006
Heightened Def Con from 2.11106e-006 to 2.11119e-006
Heightened Def Con from 2.11119e-006 to 2.11319e-006
Heightened Def Con from 2.11329e-006 to 2.11441e-006
Heightened Def Con from 2.11442e-006 to 2.11555e-006
Heightened Def Con from 2.11556e-006 to 2.11756e-006
Heightened Def Con from 2.12022e-006 to 2.12025e-006
Heightened Def Con from 2.12025e-006 to 2.1205e-006
Heightened Def Con from 2.12097e-006 to 2.12109e-006
Heightened Def Con from 2.12109e-006 to 2.12309e-006
Heightened Def Con from 2.12931e-006 to 2.13131e-006
Heightened Def Con from 2.13132e-006 to 2.13132e-006
Heightened Def Con from 2.13134e-006 to 2.13334e-006
Heightened Def Con from 2.13334e-006 to 2.13334e-006
Heightened Def Con from 2.13336e-006 to 2.13536e-006
Heightened Def Con from 2.13754e-006 to 2.13756e-006
Heightened Def Con from 2.13757e-006 to 2.13957e-006
Heightened Def Con from 2.14559e-006 to 2.14659e-006
Heightened Def Con from 2.1466e-006 to 2.14672e-006
Heightened Def Con from 2.14672e-006 to 2.14872e-006
Heightened Def Con from 2.14875e-006 to 2.14977e-006
Heightened Def Con from 2.14977e-006 to 2.15177e-006
Heightened Def Con from 2.16427e-006 to 2.16442e-006
Heightened Def Con from 2.16467e-006 to 2.16481e-006
Heightened Def Con from 2.16499e-006 to 2.16611e-006
Heightened Def Con from 2.16665e-006 to 2.16668e-006
Heightened Def Con from 2.16677e-006 to 2.16789e-006
Heightened Def Con from 2.16816e-006 to 2.16816e-006
Heightened Def Con from 2.16816e-006 to 2.17016e-006
Heightened Def Con from 2.17139e-006 to 2.17153e-006
Heightened Def Con from 2.17154e-006 to 2.17354e-006
Heightened Def Con from 2.17354e-006 to 2.17357e-006
Heightened Def Con from 2.1736e-006 to 2.17385e-006
Heightened Def Con from 2.17462e-006 to 2.17462e-006
Heightened Def Con from 2.17462e-006 to 2.17462e-006
Heightened Def Con from 2.17462e-006 to 2.17474e-006
Heightened Def Con from 2.17475e-006 to 2.17587e-006
Heightened Def Con from 2.17615e-006 +to 2.17615e-006
Heightened Def Con from 2.17615e-006 to 2.17715e-006
Heightened Def Con from 2.17715e-006 to 2.17715e-006
Heightened Def Con from 2.17715e-006 to 2.17715e-006
Heightened Def Con from 2.17715e-006 to 2.17717e-006
Heightened Def Con from 2.17717e-006 to 2.17719e-006
Heightened Def Con from 2.1772e-006 to 2.17721e-006
Heightened Def Con from 2.17721e-006 to 2.17721e-006
Heightened Def Con from 2.17721e-006 to 2.17723e-006
Heightened Def Con from 2.17723e-006 to 2.17724e-006
Heightened Def Con from 2.17724e-006 to 2.17737e-006
Heightened Def Con from 2.17737e-006 to 2.17737e-006
Heightened Def Con from 2.17737e-006 to 2.17737e-006
Heightened Def Con from 2.17737e-006 +to 2.17737e-006
Heightened Def Con from 2.17737e-006 to 2.17737e-006
Heightened Def Con from 2.17737e-006 to 2.17737e-006
Heightened Def Con from 2.17737e-006 to 2.17849e-006
Heightened Def Con from 2.17849e-006 to 2.17849e-006
Heightened Def Con from 2.17849e-006 to 2.17853e-006
Heightened Def Con from 2.17853e-006 to 2.17853e-006
Heightened Def Con from 2.17855e-006 to 2.17855e-006
Heightened Def Con from 2.17855e-006 to 2.1788e-006
Heightened Def Con from 2.1788e-006 +to 2.1798e-006
Heightened Def Con from 2.1798e-006 to 2.17981e-006
Heightened Def Con from 2.17981e-006 to 2.18081e-006
Heightened Def Con from 2.18081e-006 to 2.18081e-006
Heightened Def Con from 2.18081e-006 to 2.18081e-006
Heightened Def Con from 2.18081e-006 to 2.18081e-006
Heightened Def Con from 2.18081e-006 to 2.18081e-006
Heightened Def Con from 2.18081e-006 to 2.18081e-006
Heightened Def Con from 2.18081e-006 to 2.18081e-006
Heightened Def Con from 2.18081e-006 to 2.18082e-006
Heightened Def Con from 2.18082e-006 to 2.18082e-006
Heightened Def Con from 2.18082e-006 to 2.18082e-006
Heightened Def Con from 2.18082e-006 to 2.18082e-006
Heightened Def Con from 2.18082e-006 to 2.18083e-006
Heightened Def Con from 2.18083e-006 to 2.18086e-006
Heightened Def Con from 2.18086e-006 to 2.18088e-006
Heightened Def Con from 2.18088e-006 to 2.18088e-006
Heightened Def Con from 2.18089e-006 to 2.18089e-006
Heightened Def Con from 2.18089e-006 to 2.18089e-006
Heightened Def Con from 2.18089e-006 to 2.18089e-006
Heightened Def Con from 2.18089e-006 to 2.1809e-006
Heightened Def Con from 2.1809e-006 to 2.1809e-006
Heightened Def Con from 2.1809e-006 to 2.1809e-006
Heightened Def Con from 2.1809e-006 to 2.18092e-006
Heightened Def Con from 2.18092e-006 to 2.18092e-006
Heightened Def Con from 2.18092e-006 to 2.18092e-006
Heightened Def Con from 2.18092e-006 to 2.18092e-006
Heightened Def Con from 2.18092e-006 to 2.18092e-006
Heightened Def Con from 2.18092e-006 to 2.18092e-006
Heightened Def Con from 2.18092e-006 to 2.18092e-006
Heightened Def Con from 2.18092e-006 to 2.18092e-006
Heightened Def Con from 2.18092e-006 to 2.18092e-006
Heightened Def Con from 2.18092e-006 to 2.18092e-006
Heightened Def Con from 2.18092e-006 to 2.18192e-006
Heightened Def Con from 2.18192e-006 +to 2.18193e-006
Heightened Def Con from 2.18215e-006 to 2.18216e-006
Heightened Def Con from 2.18216e-006 to 2.18219e-006
Heightened Def Con from 2.18219e-006 to 2.18219e-006
Heightened Def Con from 2.1822e-006 to 2.1822e-006
Heightened Def Con from 2.18221e-006 to 2.18221e-006
Heightened Def Con from 2.18221e-006 to 2.18221e-006
Heightened Def Con from 2.18221e-006 to 2.18223e-006
Heightened Def Con from 2.18223e-006 to 2.18223e-006
Heightened Def Con from 2.18223e-006 to 2.18223e-006
Heightened Def Con from 2.18223e-006 to 2.18423e-006
Heightened Def Con from 2.185e-006 to 2.18612e-006
Heightened Def Con from 2.18612e-006 to 2.18625e-006
Heightened Def Con from 2.19062e-006 to 2.19062e-006
Heightened Def Con from 2.19062e-006 to 2.19164e-006
Heightened Def Con from 2.19164e-006 to 2.19264e-006
Heightened Def Con from 2.19264e-006 to 2.19264e-006
Heightened Def Con from 2.19264e-006 to 2.19464e-006
Heightened Def Con from 2.19496e-006 to 2.19696e-006
Heightened Def Con from 2.19728e-006 to 2.19728e-006
Heightened Def Con from 2.19728e-006 to 2.19928e-006
Heightened Def Con from 2.19928e-006 to 2.19931e-006
Heightened Def Con from 2.19936e-006 to 2.20048e-006
Heightened Def Con from 2.20057e-006 +to 2.20072e-006
Heightened Def Con from 2.20072e-006 to 2.20084e-006
Heightened Def Con from 2.20852e-006 to 2.20964e-006
Heightened Def Con from 2.2139e-006 to 2.2139e-006
Heightened Def Con from 2.2139e-006 +to 2.21392e-006
Heightened Def Con from 2.21392e-006 to 2.21392e-006
Heightened Def Con from 2.21392e-006 to 2.21392e-006
Heightened Def Con from 2.21392e-006 to 2.21392e-006
Heightened Def Con from 2.21392e-006 ++to 2.21505e-006
Heightened Def Con from 2.21514e-006 to 2.21514e-006
Heightened Def Con from 2.21514e-006 to 2.21514e-006
Heightened Def Con from 2.21514e-006 +to 2.21614e-006
Heightened Def Con from 2.21617e-006 to 2.21617e-006
Heightened Def Con from 2.21617e-006 to 2.21631e-006
Heightened Def Con from 2.21632e-006 to 2.21633e-006
Heightened Def Con from 2.21633e-006 to 2.21733e-006
Heightened Def Con from 2.21733e-006 to 2.21733e-006
Heightened Def Con from 2.21733e-006 +to 2.21733e-006
Heightened Def Con from 2.21733e-006 to 2.21746e-006
Heightened Def Con from 2.21746e-006 to 2.21771e-006
Heightened Def Con from 2.21796e-006 to 2.21896e-006
Heightened Def Con from 2.22087e-006 to 2.22287e-006
Heightened Def Con from 2.22287e-006 to 2.22387e-006
Heightened Def Con from 2.22415e-006 to 2.22429e-006
Heightened Def Con from 2.22429e-006 to 2.2253e-006
Heightened Def Con from 2.2253e-006 to 2.2273e-006
Heightened Def Con from 2.22731e-006 to 2.22731e-006
Heightened Def Con from 2.22731e-006 to 2.22734e-006
Heightened Def Con from 2.22735e-006 to 2.22935e-006
Heightened Def Con from 2.24522e-006 to 2.24523e-006
Heightened Def Con from 2.24529e-006 to 2.24531e-006
Heightened Def Con from 2.24531e-006 to 2.24534e-006
Heightened Def Con from 2.24537e-006 to 2.2465e-006
Heightened Def Con from 2.24683e-006 to 2.24883e-006
Heightened Def Con from 2.25083e-006 to 2.25283e-006
Heightened Def Con from 2.25285e-006 to 2.2531e-006
Heightened Def Con from 2.25336e-006 to 2.25339e-006
Heightened Def Con from 2.25341e-006 to 2.25541e-006
Heightened Def Con from 2.25541e-006 to 2.25741e-006
Heightened Def Con from 2.25941e-006 +to 2.25954e-006
Heightened Def Con from 2.25954e-006 to 2.25954e-006
Heightened Def Con from 2.25954e-006 to 2.25956e-006
Heightened Def Con from 2.25956e-006 to 2.26156e-006
Heightened Def Con from 2.26159e-006 +to 2.26259e-006
Heightened Def Con from 2.26809e-006 to 2.26834e-006
Heightened Def Con from 2.26859e-006 to 2.26873e-006
Heightened Def Con from 2.26873e-006 to 2.26986e-006
Heightened Def Con from 2.2699e-006 to 2.27015e-006
Heightened Def Con from 2.2709e-006 to 2.2709e-006
Heightened Def Con from 2.2709e-006 to 2.27103e-006
Heightened Def Con from 2.27103e-006 to 2.27104e-006
Heightened Def Con from 2.27104e-006 to 2.27205e-006
Heightened Def Con from 2.27205e-006 to 2.27405e-006
Heightened Def Con from 2.27824e-006 to 2.27824e-006
Heightened Def Con from 2.27824e-006 to 2.27826e-006
Heightened Def Con from 2.27826e-006 to 2.27938e-006
Heightened Def Con from 2.2794e-006 to 2.2794e-006
Heightened Def Con from 2.2794e-006 to 2.27965e-006
Heightened Def Con from 2.28009e-006 to 2.2801e-006
Heightened Def Con from 2.28012e-006 to 2.28037e-006
Heightened Def Con from 2.28221e-006 to 2.28236e-006
Heightened Def Con from 2.28236e-006 to 2.28261e-006
Heightened Def Con from 2.29407e-006 ++++++to 2.2942e-006
Heightened Def Con from 2.2942e-006 to 2.2942e-006
Heightened Def Con from 2.2942e-006 to 2.2942e-006
Heightened Def Con from 2.2942e-006 +to 2.29422e-006
Heightened Def Con from 2.29422e-006 to 2.29435e-006
Heightened Def Con from 2.29435e-006 to 2.29435e-006
Heightened Def Con from 2.29435e-006 to 2.29635e-006
Heightened Def Con from 2.29886e-006 ++to 2.29886e-006
Heightened Def Con from 2.29886e-006 +to 2.30088e-006
Heightened Def Con from 2.30163e-006 to 2.30163e-006
Heightened Def Con from 2.30163e-006 to 2.30363e-006
Heightened Def Con from 2.30371e-006 to 2.30386e-006
Heightened Def Con from 2.30393e-006 to 2.30593e-006
Heightened Def Con from 2.31244e-006 to 2.31246e-006
Heightened Def Con from 2.31246e-006 to 2.31246e-006
Heightened Def Con from 2.31246e-006 to 2.31246e-006
Heightened Def Con from 2.31246e-006 to 2.31446e-006
Heightened Def Con from 2.31544e-006 to 2.31644e-006
Heightened Def Con from 2.31644e-006 to 2.31645e-006
Heightened Def Con from 2.31645e-006 to 2.31745e-006
Heightened Def Con from 2.31745e-006 to 2.31858e-006
Heightened Def Con from 2.32082e-006 to 2.32082e-006
Heightened Def Con from 2.32082e-006 to 2.32107e-006
Heightened Def Con from 2.3214e-006 to 2.3234e-006
Heightened Def Con from 2.32953e-006 to 2.32953e-006
Heightened Def Con from 2.32953e-006 to 2.32954e-006
Heightened Def Con from 2.32956e-006 to 2.32958e-006
Heightened Def Con from 2.32961e-006 to 2.33061e-006
Heightened Def Con from 2.33061e-006 to 2.33064e-006
Heightened Def Con from 2.33065e-006 to 2.33166e-006
Heightened Def Con from 2.3317e-006 to 2.3317e-006
Heightened Def Con from 2.3317e-006 to 2.3317e-006
Heightened Def Con from 2.3317e-006 to 2.33183e-006
Heightened Def Con from 2.33183e-006 to 2.33183e-006
Heightened Def Con from 2.33183e-006 to 2.33184e-006
Heightened Def Con from 2.33184e-006 to 2.33284e-006
Heightened Def Con from 2.33284e-006 to 2.33284e-006
Heightened Def Con from 2.33284e-006 to 2.33286e-006
Heightened Def Con from 2.33286e-006 to 2.333e-006
Heightened Def Con from 2.33303e-006 to 2.33317e-006
Heightened Def Con from 2.33317e-006 to 2.33317e-006
Heightened Def Con from 2.33317e-006 to 2.33317e-006
Heightened Def Con from 2.33318e-006 to 2.33318e-006
Heightened Def Con from 2.33318e-006 to 2.33318e-006
Heightened Def Con from 2.33318e-006 to 2.33318e-006
Heightened Def Con from 2.33318e-006 to 2.3333e-006
Heightened Def Con from 2.3333e-006 to 2.3353e-006
Heightened Def Con from 2.3353e-006 to 2.33543e-006
Heightened Def Con from 2.33543e-006 to 2.33543e-006
Heightened Def Con from 2.33543e-006 to 2.33543e-006
Heightened Def Con from 2.33543e-006 to 2.33543e-006
Heightened Def Con from 2.33543e-006 to 2.33543e-006
Heightened Def Con from 2.33543e-006 to 2.33543e-006
Heightened Def Con from 2.33543e-006 to 2.33543e-006
Heightened Def Con from 2.33543e-006 to 2.33544e-006
Heightened Def Con from 2.33544e-006 to 2.33544e-006
Heightened Def Con from 2.33544e-006 to 2.33544e-006
Heightened Def Con from 2.33544e-006 to 2.33544e-006
Heightened Def Con from 2.33544e-006 to 2.33544e-006
Heightened Def Con from 2.33544e-006 +to 2.33544e-006
Heightened Def Con from 2.33544e-006 to 2.33556e-006
Heightened Def Con from 2.33574e-006 +to 2.33574e-006
Heightened Def Con from 2.33574e-006 +to 2.33574e-006
Heightened Def Con from 2.33574e-006 +to 2.33574e-006
Heightened Def Con from 2.33574e-006 +to 2.33574e-006
Heightened Def Con from 2.33574e-006 to 2.33574e-006
Heightened Def Con from 2.33574e-006 to 2.33574e-006
Heightened Def Con from 2.33574e-006 +to 2.33574e-006
Heightened Def Con from 2.33574e-006 +to 2.33574e-006
Heightened Def Con from 2.33574e-006 to 2.33574e-006
Heightened Def Con from 2.33574e-006 +to 2.33574e-006
Heightened Def Con from 2.33574e-006 to 2.33575e-006
Heightened Def Con from 2.33575e-006 to 2.33575e-006
Heightened Def Con from 2.33575e-006 +to 2.33575e-006
Heightened Def Con from 2.33575e-006 ++to 2.33575e-006
Heightened Def Con from 2.33575e-006 to 2.33576e-006
Heightened Def Con from 2.33578e-006 to 2.33578e-006
Heightened Def Con from 2.33578e-006 to 2.33578e-006
Heightened Def Con from 2.33578e-006 +++to 2.33578e-006
Heightened Def Con from 2.33578e-006 ++to 2.33578e-006
Heightened Def Con from 2.33578e-006 +to 2.33578e-006
Heightened Def Con from 2.33578e-006 to 2.33578e-006
Heightened Def Con from 2.33578e-006 ++to 2.33591e-006
Heightened Def Con from 2.33591e-006 to 2.33591e-006
Heightened Def Con from 2.33591e-006 +to 2.33605e-006
Heightened Def Con from 2.33608e-006 ++to 2.3361e-006
Heightened Def Con from 2.3361e-006 to 2.3361e-006
Heightened Def Con from 2.3361e-006 to 2.33612e-006
Heightened Def Con from 2.33612e-006 ++to 2.33714e-006
Heightened Def Con from 2.33714e-006 to 2.33714e-006
Heightened Def Con from 2.33714e-006 to 2.33714e-006
Heightened Def Con from 2.33714e-006 +to 2.33726e-006
Heightened Def Con from 2.33727e-006 to 2.33727e-006
Heightened Def Con from 2.33727e-006 to 2.33727e-006
Heightened Def Con from 2.33727e-006 to 2.33727e-006
Heightened Def Con from 2.33727e-006 to 2.33727e-006
Heightened Def Con from 2.33727e-006 to 2.33727e-006
Heightened Def Con from 2.33727e-006 to 2.33727e-006
Heightened Def Con from 2.33727e-006 to 2.33727e-006
Heightened Def Con from 2.33727e-006 to 2.33727e-006
Heightened Def Con from 2.33727e-006 +to 2.33727e-006
Heightened Def Con from 2.33727e-006 to 2.33727e-006
Heightened Def Con from 2.33727e-006 to 2.33727e-006
Heightened Def Con from 2.33727e-006 to 2.33727e-006
Heightened Def Con from 2.33727e-006 to 2.33727e-006
Heightened Def Con from 2.33727e-006 to 2.33727e-006
Heightened Def Con from 2.33727e-006 to 2.33727e-006
Heightened Def Con from 2.33727e-006 to 2.33727e-006
Heightened Def Con from 2.33727e-006 to 2.33727e-006
Heightened Def Con from 2.33727e-006 to 2.33727e-006
Heightened Def Con from 2.33727e-006 to 2.33727e-006
Heightened Def Con from 2.33727e-006 to 2.33727e-006
Heightened Def Con from 2.33727e-006 to 2.33727e-006
Heightened Def Con from 2.33727e-006 +to 2.33728e-006
Heightened Def Con from 2.33728e-006 +to 2.33728e-006
Heightened Def Con from 2.33728e-006 +to 2.33728e-006
Heightened Def Con from 2.33728e-006 +to 2.33728e-006
Heightened Def Con from 2.33728e-006 +to 2.33742e-006
Heightened Def Con from 2.33742e-006 to 2.33742e-006
Heightened Def Con from 2.33742e-006 to 2.33742e-006
Heightened Def Con from 2.33742e-006 to 2.33742e-006
Heightened Def Con from 2.33742e-006 ++to 2.33854e-006
Heightened Def Con from 2.33854e-006 to 2.33856e-006
Heightened Def Con from 2.33859e-006 to 2.33859e-006
Heightened Def Con from 2.33859e-006 to 2.33859e-006
Heightened Def Con from 2.33859e-006 to 2.33859e-006
Heightened Def Con from 2.33859e-006 to 2.33859e-006
Heightened Def Con from 2.33859e-006 to 2.33859e-006
Heightened Def Con from 2.33859e-006 to 2.33859e-006
Heightened Def Con from 2.33859e-006 to 2.33859e-006
Heightened Def Con from 2.3386e-006 to 2.3386e-006
Heightened Def Con from 2.3386e-006 to 2.3386e-006
Heightened Def Con from 2.3386e-006 to 2.3386e-006
Heightened Def Con from 2.3386e-006 +to 2.3386e-006
Heightened Def Con from 2.3386e-006 to 2.3386e-006
Heightened Def Con from 2.3386e-006 to 2.3386e-006
Heightened Def Con from 2.3386e-006 +to 2.3386e-006
Heightened Def Con from 2.3386e-006 to 2.3386e-006
Heightened Def Con from 2.3386e-006 to 2.33872e-006
Heightened Def Con from 2.33872e-006 to 2.33872e-006
Heightened Def Con from 2.33872e-006 to 2.33872e-006
Heightened Def Con from 2.33872e-006 to 2.33873e-006
Heightened Def Con from 2.33873e-006 to 2.34073e-006
Heightened Def Con from 2.34073e-006 to 2.34085e-006
Heightened Def Con from 2.34085e-006 to 2.34285e-006
Heightened Def Con from 2.34288e-006 to 2.34488e-006
Heightened Def Con from 2.3452e-006 to 2.3452e-006
Heightened Def Con from 2.3452e-006 to 2.3462e-006
Heightened Def Con from 2.3462e-006 to 2.34645e-006
Heightened Def Con from 2.3467e-006 to 2.3477e-006
Heightened Def Con from 2.34776e-006 to 2.34801e-006
Heightened Def Con from 2.34876e-006 to 2.34976e-006
Heightened Def Con from 2.36254e-006 to 2.36256e-006
Heightened Def Con from 2.36256e-006 +to 2.36281e-006
Heightened Def Con from 2.36312e-006 to 2.36424e-006
Heightened Def Con from 2.36424e-006 to 2.36624e-006
Heightened Def Con from 2.3666e-006 to 2.36773e-006
Heightened Def Con from 2.36773e-006 to 2.36885e-006
Heightened Def Con from 2.36886e-006 to 2.36987e-006
Heightened Def Con from 2.36993e-006 to 2.37193e-006
Heightened Def Con from 2.37204e-006 to 2.37317e-006
Heightened Def Con from 2.37496e-006 to 2.37497e-006
Heightened Def Con from 2.37497e-006 to 2.3761e-006
Heightened Def Con from 2.37614e-006 to 2.37814e-006
Heightened Def Con from 2.41166e-006 to 2.41191e-006
Heightened Def Con from 2.41268e-006 to 2.41268e-006
Heightened Def Con from 2.41268e-006 to 2.4138e-006
Heightened Def Con from 2.4138e-006 to 2.41381e-006
Heightened Def Con from 2.41381e-006 to 2.41482e-006

Date: Sun Oct 10 15:52:07 2021
Total elapsed time: 5.508 seconds.

tnom = 27
temp = 27
method = modified trap
totiter = 659783
traniter = 658417
tranpoints = 120438
accept = 66421
rejected = 56934
matrix size = 52
fillins = 204
solver = Normal
Matrix Compiler1: 15.14 KB object code size  2.7/1.4/[0.9]
Matrix Compiler2: 7.82 KB object code size  6.0/6.5/[2.2]

