Circuit: * C:\users\ashmita\Desktop\ASHMITA\APanda_Lib_LTSpice\NR2\NR2.asc

Error on line 8 : v3 n001 n006 v
	 Unknown parameter "v"
V3: Missing value, assumed 0V @ DC

Date: Sun Oct 10 07:21:28 2021
Total elapsed time: 0.032 seconds.

tnom = 27
temp = 27
method = trap
totiter = 365
traniter = 0
tranpoints = 0
accept = 0
rejected = 0
matrix size = 30
fillins = 48
solver = Normal
Matrix Compiler1: 3.81 KB object code size  1.0/0.7/[0.4]
Matrix Compiler2: 3.31 KB object code size  0.5/0.6/[0.3]

